31
Properties=species:S:1:pos:R:3 pbc="F F F"
C        0.00000000       0.00000000       0.00000000
H       -1.15843868       0.88596386       0.96725613
H        1.12364578      -0.86571330      -0.95501697
H       -1.03169096      -0.30874163      -0.16849807
H        0.50335747      -0.67694914       0.69026834
H        0.57040554       0.04741332      -0.92762536
O        0.57685292       0.57559884      -0.52614278
C       -0.93319970       0.26421887       0.45159510
C        1.01934910       1.63675272       0.05887705
C       -0.02753532       0.69889790       0.60682279
N        0.95662975      -0.67661297      -1.65779281
N        0.38719630       0.14007580      -0.40635183
C        0.03569770      -1.31359768       0.38065460
O        1.41852880       1.40676403      -1.03432560
N        1.80135047       0.25196168      -0.58676147
N        1.78576112       0.02975477      -0.26512885
C        1.37705374      -0.06134288      -2.05438590
O        1.55456865       0.89579558      -0.63922048
H       -0.54589015       0.17405403       0.94140768
H       -0.55473042       0.16339600       0.90915203
C       -0.15923375      -0.07547337       0.73031646
N        0.82684195      -0.14026353      -1.71639752
C       -0.81964833      -0.28550449      -0.88503718
C       -2.27313423       0.67363775       1.58082783
C       -2.16679811       0.73627281       1.49951816
C        1.22337222       0.28278258      -2.17787910
C       -3.18047762       0.47581571       2.28737259
C       -0.95820200      -0.05073494       1.05229127
C        0.81276435      -0.61367005      -1.86203969
C       -2.57631874      -0.56669569       0.61257887
O       -1.10576797       1.19180346       1.74454904
