31
Properties=species:S:1:pos:R:3 pbc="F F F"
C        0.00000000       0.00000000       0.00000000
H        1.35357082      -0.28803927      -1.07115662
H       -1.33174074       0.28145552       1.03505862
H       -0.11174595       0.46804190      -0.97803319
H        0.35943377       0.72061348       0.73459029
O        0.69598192      -1.22516012      -0.05186496
C       -0.61529016      -1.26443791       0.42838371
H       -0.02535701      -1.98839700      -0.65455687
H       -0.11334085      -2.03087711      -0.66957629
C       -0.90811664      -2.44999313      -0.81370431
C        0.29277962      -1.78842902      -0.58505678
C        0.19601208      -3.07196879      -0.67026359
C        0.94690442      -1.30760789      -0.41233841
C       -0.90873808      -2.15382051      -0.29019600
C        1.00467718      -1.35810351      -0.41035211
C       -0.91094929      -2.04490972      -0.19859454
H       -0.46337420      -1.80852938      -0.44108692
C       -2.39642310      -3.12211490      -1.24878228
C       -2.39116812      -3.09502649      -1.30420065
C       -2.37361741      -3.08739281      -1.29839599
C       -1.15993381      -3.06135178      -1.68764150
C       -1.64484501      -3.46041799      -0.31749421
C       -1.54425097      -3.81683469      -1.70228410
C       -1.55970478      -3.81683469      -1.69101477
C       -1.57409906      -3.85403919      -1.61845171
C       -1.63349783      -3.83799314      -1.54867029
H       -1.46854401      -4.14231920      -2.27854586
C       -0.26511490      -1.98303723      -2.39576197
C       -0.25285912      -1.98303723      -2.37999320
C       -1.09672070      -3.28183842       0.25943401
H       -0.11724180      -1.53984594      -1.03790438
