8
Properties=species:S:1:pos:R:3 pbc="F F F"
C        0.00000000       0.00000000       0.00000000
H        1.51218379       0.28803927       0.83236432
H       -1.48468029      -0.28145552      -0.80037755
H       -0.11352166       0.12305065       1.07706583
H       -0.22874567       0.92775941      -0.52443981
H       -0.64911985      -0.78896600      -0.37983596
O       -0.02502648      -0.92775941      -0.57160771
C        0.55549139      -1.44193542      -1.04776073
