28
Properties=species:S:1:pos:R:3 pbc="F F F"
C        0.00000000       0.00000000       0.00000000
H        0.65122724      -0.63968152      -1.49305296
H       -0.62355077       0.62506020       1.46443880
H        0.94073254      -0.53538591       0.12838906
H       -0.85493004      -0.63143963       0.24182226
H       -0.03170402       0.90728503       0.60326445
N       -0.41693315       0.48359534      -0.83354765
C       -0.26697347      -0.40741688       1.68084288
O       -0.03818947       0.67079628      -2.03121519
H        1.12900162       1.36678028      -3.13383389
H        0.14877251       0.10884988      -1.42149282
C        0.81333941      -0.17328024      -3.17194724
C        1.08326972      -0.32164428      -3.15879250
H        0.67851448      -0.12596136       3.07760072
H        0.67851448      -0.12596136       3.07760072
H        0.67851448      -0.12596136       3.07760072
H        0.67851448      -0.12596136       3.07760072
H        0.67851448      -0.12596136       3.07760072
H        0.67851448      -0.12596136       3.07760072
H        0.72681713      -0.12596136       3.04365635
C       -0.33088660      -0.11525750       3.78037643
C       -0.23738015      -0.11612774       3.73937058
C       -0.08469135      -0.11786820       3.60896778
C       -0.23738015      -0.11612774       3.73937058
C       -0.23738015      -0.11612774       3.73937058
C       -0.26523453      -0.11595368       3.73466730
C       -0.28164756      -0.11577964       3.74609470
C       -0.36371267      -0.11490941       3.80323076
