12
Properties=species:S:1:pos:R:3 pbc="F F F"
C        0.00000000       0.00000000       0.00000000
H        0.80095297      -1.54981339       0.13801982
H       -0.78143531       1.51438916      -0.14170882
H        0.88633406      -0.08528364      -0.62867945
H        0.23032048       0.53538591       0.92109382
H       -0.80083603       0.51878053      -0.52690387
C       -0.83592653      -0.28517115       0.60398966
C       -0.85467207       0.71758610      -0.60622150
C       -0.65280271      -0.10927618      -0.28427854
H       -1.15975380       2.00882101      -1.08343828
H       -1.19717836       2.02713633      -1.06737840
N       -0.65068877      -0.06516141      -0.18933204
