31
Properties=species:S:1:pos:R:3 pbc="F F F"
C        0.00000000       0.00000000       0.00000000
H       -1.00872386       1.26668823      -0.66368198
H        0.96191466      -1.25808239       0.64501625
H       -1.00301027      -0.32688832      -0.27425128
O        0.00000000       1.11050987       0.76763678
O        1.01921511      -0.80773491      -0.27868193
C        1.15155149       0.75896728      -0.14365059
C        0.98094636       1.02340078      -1.43588400
C        0.79065728       1.28385782      -2.70554972
H        0.08641607       2.04617143      -3.03874874
O        1.30565608       0.63077581      -3.69163227
H        2.02801824       0.07139754      -3.31033397
N        0.62726295       1.30682313       0.60303569
C        1.76224065       0.27123311      -0.60977709
C        1.76671433       0.26676738      -1.03550971
C        0.18489468       1.66497433      -1.46752703
C        0.04345000       2.07414627      -3.01218438
H        3.25183773      -0.90762335      -3.94269514
H        3.26271725      -0.90762335      -3.92118025
H        3.26678991      -0.88350040      -3.95042109
C        1.03238440       0.74480325      -0.73435271
C        1.02014458       0.72543943      -0.74494141
N       -1.30052662       2.13201141      -2.79975128
H        0.37365431       0.55018669      -3.26061296
H        0.37554711       0.58684236      -3.30039477
H        0.36827451       0.60441041      -3.31650519
C        0.18987928       1.40868616      -4.11888599
C        0.47029898       1.34854269      -4.12969208
H        0.30022514       1.42173171      -4.17874289
H        0.30022514       1.42173171      -4.17874289
C        0.14076233       1.52250838      -4.19367838
