31
Properties=species:S:1:pos:R:3 pbc="F F F"
C        0.00000000       0.00000000       0.00000000
H       -0.68758947      -0.96352065       1.28893185
H        0.66082585       0.94149733      -1.26530182
H       -1.08003712      -0.12305065      -0.08048517
H        0.25417849       0.95635599       0.45702931
H        0.50305104      -0.08528364      -0.96320593
N        0.74172109       0.27984086       0.68850428
N       -0.99256545      -0.58319479      -0.81412286
C        0.41523176       0.36869335       1.24548113
C       -0.76794291      -0.18621565      -0.76702797
C       -0.09984016      -0.54812747      -0.26627022
H        0.20361412      -0.34916365      -0.66892296
H       -0.80752981      -1.17756605      -0.08906466
C       -0.76786941       0.00468278      -1.35265684
C       -0.71956086       0.04873323      -1.35796690
C       -1.56407487      -1.19377327      -0.64414501
N       -2.12169933      -1.03383338      -1.23984730
C        0.88352674      -0.49100322      -1.65212774
C       -2.04817438      -0.40359306      -1.81710041
C       -1.00051463      -0.77806473      -0.95105731
C       -1.12306774       0.45021135      -0.22209978
C       -0.78868395       0.50433469      -0.17473596
N       -0.90774018      -1.09411883      -1.99057460
N       -0.84528774      -1.08413422      -2.02808237
C       -1.01791251       0.78185529       1.10162473
C       -0.98233277       0.86200804       1.03316259
C       -0.95212370       0.93738800       0.95836323
C       -0.45246190       0.82597160      -0.49036038
C       -1.33023977      -0.32519883       1.76929331
N       -1.07412815      -1.11670136      -2.14417863
C       -1.43167126      -0.95998269      -2.72242403
