31
Properties=species:S:1:pos:R:3 pbc="F F F"
C        0.00000000       0.00000000       0.00000000
H       -1.19576156      -0.04568259       1.27693546
H        1.15746653       0.04463842      -1.25792515
H       -1.02556634      -0.08528364      -0.35922092
H        0.48830178      -0.97397673       0.03209441
O        0.10023215       0.78538948       1.14246011
C       -1.25590754       0.89314598       2.27478981
C        0.64169711       1.27778578       0.01966030
C        0.63190150       0.72147453      -1.09967911
N        0.69377947       1.72862434       1.01068568
N        0.67106599       0.45295870      -1.09877431
C        0.52706546       2.42021990       0.60771024
C        0.57585371       3.33969402       2.00093818
C       -2.34201288      -0.02047096       0.33566469
C       -2.35397267      -0.02047096       0.31251860
H       -0.02223015      -0.05812692       2.09398341
H        1.11817682       0.01451549       3.31180620
H        1.11817682       0.01451549       3.31180620
H        1.11817682       0.01451549       3.31180620
H        1.11817682       0.01451549       3.31180620
H        1.14593852       0.01364552       3.25705194
C        1.74891663       0.00224521       2.05080891
C        1.77555752       0.05288886       1.99754739
C        1.82640028       0.18272232       2.01172018
C        1.88511443       0.51721948       2.11214256
C        0.69489431       0.02260865       4.13985586
C        0.69489431       0.02260865       4.13985586
C        0.48572057      -0.02176955       4.54905367
C        0.48572057      -0.02176955       4.54905367
C        0.48610383      -0.04594736       4.54830360
C        0.48610383      -0.04594736       4.54830360
