31
Properties=species:S:1:pos:R:3 pbc="F F F"
C        0.00000000       0.00000000       0.00000000
H       -1.41340542       0.83290428      -0.60914052
H        1.37583756      -0.81386650       0.60728019
H       -0.74370301       0.21671624       0.76683718
H        0.79222912       0.74863887      -0.00346642
O       -0.59644729      -0.28033933      -1.24649858
C        0.22850551      -1.30184340      -0.64334059
H        1.22764397      -1.36820197      -1.07394290
C        0.74397182       1.13815129      -1.10566890
O       -0.40997028       2.36141014      -1.27345490
H       -0.22377227      -2.24813986      -0.69301212
H        0.60610938       1.86310220      -0.88580489
H        1.92532587      -2.16313672       1.00430703
C        0.87298065       1.44764531       1.53307712
C        0.74803859       1.70332503      -1.01278281
C       -0.50548965       0.50439084      -0.46105307
C        0.58959490      -1.04822707      -0.46657956
C        0.57581389      -1.07375920      -0.42376655
C       -0.49951425      -0.17158315       0.13584530
C       -0.45461124      -0.17760895      -0.35350990
C       -1.27651346       0.62666678      -0.34272069
C       -0.94733614      -0.21291929      -0.46452892
H        0.34999192      -3.00807524       0.65450037
H        0.36000550      -2.95664358       0.67801785
H        0.36474782      -2.93060184       0.68915534
H       -0.76571006       0.65942466      -0.18581542
H        0.20997778      -0.81460881      -0.42561555
C        0.11705905      -0.86815929      -0.50982058
H       -2.11813235       1.19152343       0.20052302
H       -2.11903024       1.20887172       0.18044460
H       -2.11922789       1.22604370       0.16034895
