31
Properties=species:S:1:pos:R:3 pbc="F F F"
C        0.00000000       0.00000000       0.00000000
H       -1.08498108      -0.19755834      -1.35878015
H        1.07175970       0.19304273       1.31839395
H        0.51101965      -0.21671624      -0.93807906
H       -0.12594344      -0.90728503       0.59082264
O       -1.18760931       0.73488808      -0.19396302
C       -0.06823439       1.29565692       0.64739126
H       -0.39727634       0.26740706       0.01736563
C       -1.90408564       1.12563872      -0.59654868
C       -1.02207959       0.64790964      -1.08454394
N       -1.85723925       1.97180748       0.62976241
N       -0.18564653       0.06868225      -0.32178766
H       -2.58721304       1.45627391      -0.46648285
H       -0.98748088       1.27871108      -0.63266259
C       -0.82714343       1.13511240       1.10614681
C       -0.26932192       0.47643429       0.81791425
C        0.94232112       1.22736430       1.84697914
C        0.99611527       1.19885874       1.82462859
C        1.48746657       0.62321329       0.92463595
H       -2.64673948       1.45573413      -0.42801929
H       -2.92617798       3.13716078       0.93211842
H       -2.90650010       3.15631771       0.92655241
H       -2.90114546       3.15631771       0.94486994
C       -1.35987997       3.90776086       1.29462719
C       -2.56442237       3.77028728      -0.15516973
C       -2.47597289       3.86657023      -0.06050700
H       -2.47121334       3.81492853       2.11888433
C       -2.51538277       3.88520432      -0.06332135
C       -1.62229848       4.18105698       1.07897508
C       -2.56677246       3.91520381      -0.08575964
C       -3.41064167       4.51965237       0.54279798
