31
Properties=species:S:1:pos:R:3 pbc="F F F"
C        0.00000000       0.00000000       0.00000000
H        1.73860896      -0.13692325       0.14487143
H       -1.69756544       0.13379358      -0.15642141
H        0.54007137       0.48510346      -0.81307864
H       -0.29924867       0.73383576       0.77719659
O        1.46997380      -0.11658037      -0.21373808
N        1.63296235       1.25919235      -0.52450627
C       -0.52363217       1.09960270      -1.85376239
C       -0.52363217       1.09960270      -1.85376239
C       -0.52824461       1.09196913      -1.82229233
C       -0.34056762       1.39527094      -3.07522297
C       -0.40399152       1.29283476      -2.65204000
C       -0.33191890       1.40923953      -3.13292980
C       -0.28579244       1.48373866      -3.44069934
C       -0.33480179       1.40458333      -3.11369419
H       -0.68785769       0.81790298      -0.68852675
H       -0.68785769       0.81790298      -0.68852675
H       -0.68785769       0.81790298      -0.68852675
H       -0.68785769       0.81790298      -0.68852675
C       -0.61909586       0.96457314      -1.29776073
C       -0.61909586       0.96457314      -1.29776073
C       -0.61604476       0.96922934      -1.31697035
C       -0.61209714       0.87076157      -1.02671969
C       -1.11792946       2.48104095      -3.68710279
C       -0.62734568       0.44309407      -4.14232540
C       -0.08585525       2.22979331      -1.67582488
C       -0.79601061       0.60604614       0.18983495
C       -0.81136620       0.60604614       0.18780768
H       -0.31257266       1.12706113      -0.04069787
C       -0.84195918       0.60604614       0.18294847
C       -0.84257787       0.62148070       0.18644732
