16
Properties=species:S:1:pos:R:3 pbc="F F F"
C        0.00000000       0.00000000       0.00000000
H       -1.00089216      -1.22389758       0.75019079
H        0.95843536       1.19592285      -0.75846368
H       -0.99792647      -0.08528364      -0.43008000
O        0.64011693      -1.18447745       0.09880218
O        0.50266415       1.21797335       0.18101989
C        0.87058449      -0.11570013       1.02048421
C        1.46774364       0.99390876       1.29665017
C        0.59079516       1.35903442       0.30946070
C        1.04346204       2.42018843       0.88664675
C       -1.67474079      -0.37972355      -0.12467867
C       -1.07196188       0.48354179      -1.03216362
C       -1.42620027      -0.63748038      -0.96127218
C       -0.53829300       0.29239815       0.93023151
C       -0.65260470       0.23071539       1.04643154
C        1.19510090       3.33366513       1.84135318
