8
Properties=species:S:1:pos:R:3 pbc="F F F"
C        0.00000000       0.00000000       0.00000000
H        1.70602679       0.04568259       0.38714632
H       -1.66365778      -0.04463842      -0.39287049
H        0.63205230       0.25376257      -0.85100740
H       -0.42364624       0.89663398       0.45240533
H       -0.81109613      -0.67694914      -0.26825753
O       -0.43340093      -0.83435720       0.23856071
C        0.24824145      -0.52255523       0.05039078
