31
Properties=species:S:1:pos:R:3 pbc="F F F"
C        0.00000000       0.00000000       0.00000000
H        1.19921947      -0.98879963       0.80414218
H       -1.17864013       0.96619850      -0.77547711
H       -0.18858501      -0.12305065       1.06648648
H        0.48025328       0.95635599      -0.20697647
H       -0.92179698      -0.06514095      -0.53939444
C        0.65826344      -0.52791226       2.03676128
C       -0.52635539      -0.51668626       1.52622175
C        1.85453343       1.98293924      -0.43142670
N       -0.58175701       0.36607730       0.96767348
C        0.92379791      -1.08072746      -0.67767769
C       -1.09701014       0.00416547       1.62466192
C       -1.98595476      -0.42149204       0.39142680
C       -1.71866894       0.67105794       1.54257941
C       -2.21870995      -0.68941772       1.25367701
C       -1.35410559       0.32649371       1.44726753
H       -1.60563147       0.64089185       0.93213826
C       -2.12865472      -0.39773709       1.28985441
C       -0.77758086      -1.22284544       1.56856799
C       -0.36992478       0.33535308       1.67662203
C       -2.71813822       0.70212209       2.18771148
C       -0.49501437       0.98107946      -2.34280968
C       -0.52274752       1.01083696      -2.35405540
H        1.41176593      -1.91606486       0.65895838
H        1.41176593      -1.91606486       0.65895838
H        1.41176593      -1.91606486       0.65895838
H        1.43508375      -1.91606486       0.65021366
C        0.35582781      -1.94556272       1.06023598
C        0.20631444      -1.94973946       1.11705399
C        0.35582781      -1.94556272       1.06023598
C        0.33713865      -1.94608486       1.06733823
