31
Properties=species:S:1:pos:R:3 pbc="F F F"
C        0.00000000       0.00000000       0.00000000
H       -0.74387634       0.75144321       1.39444530
H        0.73876935      -0.73426741      -1.35615933
H        0.67059433       0.08528364       0.85506094
H       -0.43330020      -0.99818879      -0.06300291
H        0.50913793       0.23527505      -0.93462479
N        0.95421785      -0.80115992      -0.33423001
H        0.41940558      -0.36056134       0.37284023
C       -0.30041617      -1.08553243      -1.52588141
C        0.68647557       0.59707505      -1.75225389
C        0.59210271       0.39738375      -1.61452651
C        1.02823830       1.47852099      -1.65972614
C        1.05366921       1.46281266      -1.66779232
C        0.26367497      -0.18492515      -0.26225615
C        0.54268670       0.75405556       0.02341521
C        0.52799141      -0.64878631      -0.71972990
C       -0.02554673      -0.91056043      -0.62949449
C       -0.02305496      -0.91542023      -0.67058605
O        0.92465031       1.06155133      -3.11025047
C        1.25464153       0.77583396       0.95570362
C        1.20588768       0.81538796       0.94730240
C        1.15132570       0.85140461       0.95533973
C        2.33009291       0.11167943       0.53130329
C       -0.04193318       0.60306185       0.69838578
C        0.67059433       0.21814075       2.23869658
C        0.11325771      -0.55000383       0.76403546
N        0.90969735       1.33802068       1.38913310
C        0.23160672      -0.02591181       0.99413228
C       -0.12997864      -0.79524875      -0.68537450
C       -0.09400237       0.84073532      -1.39570737
C       -0.09897053       0.85649681      -1.35497618
