31
Properties=species:S:1:pos:R:3 pbc="F F F"
C        0.00000000       0.00000000       0.00000000
H        0.61002880       0.55379617      -1.54391420
H       -0.60926437      -0.54113799       1.50335085
H       -0.74806398       0.50201803      -0.61357766
H        0.42823172       0.67694914       0.73922706
H       -0.38324910      -0.88571131       0.50669003
O        0.17756173      -0.93820661       0.17070363
C        0.59647471       1.00847030      -0.80907714
C        0.33077747      -0.60112280      -0.46633983
C       -0.89186597      -0.59773719       1.20417094
C        1.58105779       1.27380991       0.24238950
C        1.54349971       1.31713724       0.21155781
C        2.57036400       0.16975093       1.01130056
C       -0.83052456      -0.47571206       0.84411448
C        2.57152200       0.07186711       1.04039359
C        2.11272573       0.67219675       0.67074740
C        2.06301093       0.70084941       0.64480382
C        3.35684371      -0.69630742       1.60078454
H        2.01255322       0.81011850       0.58553505
C        2.41818833      -0.35923928       0.41071701
C        0.90920663      -0.46792978       0.85630393
C        3.36591005      -0.84433579       1.67555428
C        3.42077518      -0.91427267       1.72136474
C        3.43174815      -0.92826009       1.73052692
C        0.60749018       2.32997656      -0.52804893
C        0.60749018       2.32997656      -0.52804893
C        0.60749018       2.32997656      -0.52804893
C        0.56993210       2.37330389      -0.55888063
C        1.33799696       1.47390640       0.06051075
C        1.33892465       1.46042502       0.08267379
O       -0.42234159      -0.45531142       0.28244168
