31
Properties=species:S:1:pos:R:3 pbc="F F F"
C        0.00000000       0.00000000       0.00000000
H       -1.73949683      -0.07612228       0.17564940
H        1.70117378       0.07438234      -0.15675376
H       -0.33557633       0.12305065       1.02973115
H        0.21047953       0.96531260      -0.46040124
H        0.89787298      -0.61588109      -0.05112727
C       -0.00910616      -0.24910638      -1.04055870
C        0.65187532       1.07004178      -0.55404645
C       -0.86185199       0.69987440      -0.23828843
H       -0.64613199      -1.24730933       0.24375015
H       -0.65417665      -1.27589095       0.29928374
C        0.70463783       0.77482712      -1.60538435
C        0.64713830       0.79048264      -1.59831858
C       -0.58045965       1.48398566      -1.86173701
C        2.30967355       0.44279405      -1.92555845
H        0.87145650       1.27258623       0.26305789
H        0.82827103       1.27258623       0.27345586
C        1.88474298       1.71403909       0.36537659
C       -0.60471731       1.16287851      -1.49628067
C        0.09302986       0.70094061      -2.12743545
C        0.26560003       0.70525765      -2.15835953
C       -0.13188660       1.06280124      -1.81845140
C        0.50078309       0.72252548      -2.11881518
C       -0.95630574       1.00740099      -1.43718553
C        0.64166915       0.13202623      -2.13835263
C        0.67867482      -0.01294664      -2.16270971
C        0.89145422       1.12286985      -2.59656334
C        2.60325432       0.02872148      -2.63213754
C        2.60044456       0.01546764      -2.62537575
H       -0.02953142       0.35867748      -1.66003299
C       -1.59406066       0.62742823      -2.19390583
