8
Properties=species:S:1:pos:R:3 pbc="F F F"
C        0.00000000       0.00000000       0.00000000
H        0.91154772      -0.96352065      -1.14158010
H       -0.90043986       0.94149733       1.10764956
H       -0.32655251       0.12305065      -1.03262842
H        0.67537582       0.80193579       0.29810375
O        0.44745591      -1.31016457       0.26711476
C       -0.66836166      -0.77715862       1.02558053
H       -0.42396438      -0.36113110       2.00297022
