31
Properties=species:S:1:pos:R:3 pbc="F F F"
C        0.00000000       0.00000000       0.00000000
H       -1.07666039       0.91209501       1.03507555
H        1.04315996      -0.89124715      -1.02058446
H       -1.04916358      -0.27217323      -0.11522470
H        0.51985580      -0.69171494       0.66285723
O        0.16253574       1.35590887       0.25921333
C        0.76274520       0.81929117      -0.92167222
H        0.13896102       0.05691582      -1.43331301
H        0.88044089       1.37561929      -1.49851418
C        1.46167135      -0.19048691      -0.61823761
C        1.97838116       0.80896902      -2.09040356
N        2.21463227       1.75046635      -3.49819088
N        0.92715847       1.45192575      -2.39770842
O        0.54623079       0.20072746      -3.06874871
C        1.14437103       1.56694126      -3.84701443
H       -0.74102640       0.22592996      -1.18440318
H        0.47440884      -0.02973664       1.52762222
H        0.44793129      -0.03960794       1.48266375
C        1.38871050      -0.26510158       2.45270801
C       -0.04072067      -0.11080806       0.71830159
C        0.61451638      -0.05991487       1.68627548
C        0.84810287      -0.19405103       2.55549622
C       -0.26977134       0.25190777       0.98648918
C       -0.03833634      -0.12285091       2.36247849
C        0.70154393       1.40854526       3.24302959
C       -0.20034736       0.26582173       0.94304484
C        1.03848052      -0.57884794       0.95786357
C        1.06659365      -0.53280312       0.95724839
C        1.28282332       1.04663348       3.84239101
C        1.29399824       1.01779461       3.81260109
C        1.30940306       0.90751433       3.69863343
