31
Properties=species:S:1:pos:R:3 pbc="F F F"
C        0.00000000       0.00000000       0.00000000
H        1.31357622       1.13392138       0.22635479
H       -1.28156686      -1.10800314      -0.23240481
H        0.40833250       0.38071239      -0.93617415
H       -0.90894604       0.53538591       0.27436924
H       -0.22352001      -1.06326675      -0.08718807
C       -0.05412427      -0.28517115       1.02987731
C       -1.34189570       0.22549364       0.15927032
H       -2.26854086      -0.52598202      -0.04250202
C       -2.08958530      -0.26224053      -0.01729554
C       -0.74988008      -0.36414567      -0.20120540
C       -0.73941010      -0.38791111      -0.13879919
C       -0.18975782      -0.81166673      -0.46183655
C        0.81221730       0.39075062       0.12536591
C        0.80307442       0.40499467       0.13838539
C        1.19257188      -0.93271995      -0.66952628
H        1.43971395      -0.51672852      -0.78437454
C        1.14110720      -0.26792750      -0.40949327
H        1.68789315      -0.26786008      -0.79350400
C        1.27445877      -0.52542424      -0.68891597
C        0.63644594      -2.13293076      -0.64698148
C        0.82312745      -2.18241858      -0.48019052
C        1.48927367       1.15526319      -1.03825986
C        1.63063371       1.12266529      -1.07600403
C        1.68838847       1.09296668      -1.13877141
C        0.45744354      -0.22247007      -0.42660975
C       -0.23162150       0.99608731      -0.12197077
C        0.86207902       1.35145080       0.05937231
C        1.38073123       1.22539568      -0.20704198
C        1.38505232       1.31908762      -0.22206742
C        1.08758152      -0.67615443      -1.63202524
