31
Properties=species:S:1:pos:R:3 pbc="F F F"
C        0.00000000       0.00000000       0.00000000
H       -1.60571611      -0.16726613       0.67542207
H        1.56317854       0.16344291      -0.67368859
H       -0.79208207       0.02845373      -0.74826187
H        0.32738128       1.00565791       0.26376683
H        0.85132062      -0.58420897      -0.34935996
N        0.62763566       0.50508565      -0.98176414
H       -0.21518672       0.37622115      -0.47863007
C       -1.64049435       0.48952472      -2.18370843
C        1.78791261      -1.18687224      -0.61853725
C        1.75869763       0.00426732       0.71358711
O        0.00217098       0.23260736      -1.12386250
C       -0.64908648       1.38377881      -1.15734744
H        0.16968626      -0.32051024      -0.62875688
H        0.40379119       1.16344249      -0.85552299
N       -1.82838202       0.56684154      -3.43735075
O       -1.84673905       0.39172238      -3.41269040
N       -1.17958713       2.30028987      -2.49998426
H       -1.88787663      -0.60285568      -3.07859230
C       -2.06060410      -1.18382788      -3.41362619
C       -2.12534285      -1.29370737      -3.48886847
C       -2.27249742      -1.16205120      -3.98593926
C       -1.31651497       0.06432462      -2.59061718
C       -1.33754086       0.11758351      -2.61387300
C        0.33660150       0.54640424      -0.40807986
C        0.41184211       0.53624976      -0.44054794
C       -0.30226865       0.24992198      -0.80155104
C        0.13620740       0.06899105      -2.10811186
H        0.92366964      -0.46044672      -0.69823229
O        1.26208925       0.32293513      -0.29901055
C        0.51703191       0.66668725      -2.11382246
