6
Properties=species:S:1:pos:R:3 pbc="F F F"
C        0.00000000       0.00000000       0.00000000
H        0.44061905      -1.50528312      -0.77619201
H       -0.42389417       1.47087669       0.76218915
H        0.66973299      -0.61588109       0.60020626
H       -1.05585003      -0.12530847       0.31871283
N       -1.24855185       0.23080420      -0.02731927
