7
Properties=species:S:1:pos:R:3 pbc="F F F"
C        0.00000000       0.00000000       0.00000000
H        0.81994826       1.03845119      -1.14533865
H       -0.81096935      -1.01471519       1.11210549
H       -0.67866826       0.53538591      -0.66398102
H        0.08455841       0.50201803       0.96380860
H       -0.31184208      -1.03246677       0.15769020
N        0.79718059       0.15477248       0.66561854
