31
Properties=species:S:1:pos:R:3 pbc="F F F"
C        0.00000000       0.00000000       0.00000000
H       -0.28214505      -1.22389758       1.21859157
H        0.26526567       1.19592285      -1.19310510
H       -1.04563367      -0.08528364       0.29576397
H        0.48522356       0.82714260       0.51816267
H        0.08502854       0.14188111      -1.07737601
N       -0.50131768       1.10960889      -0.42608371
H       -1.36410570       1.13545215      -0.91088128
O       -0.57275122       1.92909646      -0.12298185
C       -0.57118040      -0.67123675       0.55592698
C       -0.80602169      -0.71237034       1.25401640
C       -1.57787395       0.90793943      -0.44769198
C       -2.09963536       0.44262430       0.49046892
C       -1.41902196       1.41104686      -0.27570415
H       -1.80325758       0.49903214       0.29203737
C       -2.14886522       2.22022128      -1.20127225
H       -1.84940529       1.80848432      -0.72645777
C       -0.47512347       1.00676739      -0.70924354
C        0.77860731       1.14212584      -1.89361429
C       -0.63541603      -0.04531336      -1.66440368
C       -0.99589741       0.75052023       0.57575846
C       -1.30198896       1.64849186       0.27107906
H       -3.43896961       0.19941048       1.42295396
H       -2.82780361       0.37298903       0.99744183
H       -2.83813143       0.40391067       0.98567057
O       -1.79814911       0.68235540       0.27503425
H       -0.38796079      -0.35427046      -0.17072541
H       -0.42349875      -0.36160451      -0.17909890
H       -0.75587714      -0.30985701       0.60150766
H       -0.02922392      -1.22880054       0.30910659
C       -3.06015849       0.57046688       0.22507334
