31
Properties=species:S:1:pos:R:3 pbc="F F F"
C        0.00000000       0.00000000       0.00000000
H       -1.05564773      -0.01522907       1.39566207
H        1.04341364       0.01488097      -1.35468197
H        0.45856529       0.41602752       0.89707202
H       -0.38267258       0.78896600      -0.64745176
H        0.68695265      -0.63143963      -0.56345314
N       -0.90593934       0.02740956      -0.53011525
N        0.78946894      -0.64939934       0.97114223
C       -0.35493839       1.04354656       1.86274791
O       -1.16776264      -0.65266687      -1.06510699
O        0.80915695       0.68246192      -1.26570451
C        0.93345034      -0.34227747      -2.55293322
H       -0.87380779       0.36588368      -1.75375795
C       -0.09752640       1.35412550      -1.30119956
C        0.23994333       1.02240705      -0.61352909
N       -0.18341690      -0.12276834      -0.71935332
N        0.49247384       1.36259317      -1.78071237
N       -0.28169423       1.53201330      -2.12895608
C       -1.26722443       0.93874645      -0.49502605
H       -0.29443079       0.76260060       0.35834038
H        0.87726402       1.77957296      -1.24356842
H       -1.88622200       0.80332482      -1.32688498
H       -1.84582913       0.88941699      -1.40348077
C       -2.22716904      -0.08487529      -0.48560345
C       -2.13324857       0.76041883      -1.54149628
H       -0.39386678       1.38739395      -1.04662156
C       -2.41314006      -0.14564830      -0.59620374
H        0.93413842       2.20268869      -1.81159806
H       -1.38501084       1.78297889      -1.75216150
H        0.96794057       2.22259235      -1.69546318
H        0.96850264       2.26160455      -1.59268177
