31
Properties=species:S:1:pos:R:3 pbc="F F F"
C        0.00000000       0.00000000       0.00000000
H        0.81975007       1.48952162       0.41452587
H       -0.81136948      -1.45547545      -0.38388491
H       -0.24776174       0.38071239       0.99084383
H       -0.75095016       0.29050145      -0.73469865
O        1.33292103       0.28033933      -0.36445791
C        0.84083229      -1.14811325      -0.27809232
H        0.40065518       0.02124453      -0.24141403
C        2.21825981       0.30409428      -0.57352948
C       -1.33889914      -2.76502562      -0.61123633
C       -1.34187412      -2.75483012      -0.65800250
N       -0.47034606      -0.71690351      -0.13748217
C        1.95377564       0.33573958       0.29854298
C        1.89116955       0.49219620       0.32225519
C        0.94027185       0.30409428      -1.18504429
C        2.46775770       0.65617156      -1.91587472
C        2.44520664       0.63235593      -1.92587471
C        2.36846256      -0.91644776       0.12836620
C        2.32387137      -0.91644776       0.04565072
C        1.97017968       0.45387477       0.28909552
C        1.72368920       0.21711586       0.18537396
C        2.06029010       0.37529439       0.31982142
H        2.31737995       0.01892313      -1.60005367
C        1.70086336      -0.39961424      -1.65482199
C        1.76799989      -0.44090608      -1.65719867
C        1.76799989      -0.44090608      -1.65719867
C        1.77822113      -0.48129520      -1.63259864
C        3.05881310      -1.51338124      -1.45796144
C        2.04779148      -2.11998057      -1.14789379
C        2.58317757      -1.04067349      -1.49388885
C        2.26062322      -2.03476048      -1.35595667
