31
Properties=species:S:1:pos:R:3 pbc="F F F"
C        0.00000000       0.00000000       0.00000000
H       -1.47737110      -0.75144321       0.56143045
H        1.44834793       0.73426741      -0.53594428
H       -0.05694310      -0.10418293       1.08351409
H       -0.30207163       0.99818879      -0.31697184
O       -0.64626694      -1.05382943      -0.67814523
C        0.85989910      -0.77715862      -0.87126118
H       -0.10693169      -0.26014197      -0.27090240
C       -0.91205490      -1.70148015      -1.25952744
C       -0.98446703      -1.71250749      -1.20716667
C       -1.61275840      -0.07633036      -1.72851992
C       -0.24839714       0.00096691       0.13499844
C       -2.07859707      -1.82126367      -0.35678440
C       -2.03136849      -1.81656921      -0.39349157
C       -2.05561638      -1.86265182      -0.43321931
C       -1.71675694      -2.25250244      -1.22318971
C       -0.78169101      -2.89213157       0.06949520
C       -0.83665776      -2.71470046       0.19520926
C       -0.85107464      -2.43818688       0.31325853
C       -1.06584883      -1.32857800       0.93514174
C       -1.46627104      -3.50995970      -0.68720841
C       -1.47102952      -2.13219619       1.36170566
C       -0.75874090      -2.53364110      -0.94854140
C       -1.04244173      -2.96347570      -0.82706988
C       -1.23496151      -2.98352003      -0.76754737
C       -1.25700080      -2.25725865       1.10735464
C       -1.63807821      -2.21314240       2.75323772
C       -1.66657686      -2.18374634       2.74532294
C       -1.69478166      -2.15437245       2.73642159
C        0.13921368      -1.43511689      -0.32936233
C        0.16115904      -1.43511689      -0.30807906
