6
Properties=species:S:1:pos:R:3 pbc="F F F"
C        0.00000000       0.00000000       0.00000000
H        1.26650906      -1.15694797      -0.34629902
H       -1.24047410       1.13050354       0.32754070
H       -0.15713753      -0.53538591      -0.93635952
H       -0.60006464      -0.44145283       0.82288581
N       -0.51694793      -0.07731681       1.15744793
