31
Properties=species:S:1:pos:R:3 pbc="F F F"
C        0.00000000       0.00000000       0.00000000
H        1.66943300       0.52482057      -0.00730465
H       -1.63982701      -0.48435602       0.02152624
H        0.20628110       0.86306459       0.63298267
O        0.44895691       0.15240216      -1.26400554
O       -0.80222595      -0.94656610       0.47889951
C        0.34105694      -1.13636315      -0.65380925
N       -1.26583111      -0.53733253      -0.51946455
C       -0.51486927       0.31731033      -0.55221891
C        0.93864757       0.19198576      -2.02999234
C        1.57614052       0.13406995      -0.82382792
C        1.14193523      -0.32663143      -1.47752476
C        1.83100963      -0.73118508      -1.18767536
C       -0.09010422      -0.62317246      -1.29302526
O       -2.18902922       0.15865147       0.79423577
C       -0.93136901      -0.83842319      -0.50209248
O       -0.33757681      -2.15595055      -0.62054276
O       -1.68063855      -0.37772182      -0.73543602
C       -0.42485300      -1.31915641       0.27733970
H       -1.04756069       0.03792360      -0.00180885
C        0.35753089      -1.23213959      -0.16176495
C        0.28956300      -1.39123344      -0.13354912
C       -0.77285039      -2.93869805      -0.78161061
C        1.35367703      -2.41390467      -0.98880488
C       -0.78839320      -2.93050218      -0.77844834
C       -1.19302857      -1.73192084      -0.60486853
C       -0.61890799      -1.23657334      -1.35937607
C        0.31612721       0.84738719      -2.27011251
C        0.31456417       0.82961965      -2.28195143
C        0.87329847       1.99221218      -2.26483297
C       -1.25392199      -1.74851584      -0.65458620
