23
Properties=species:S:1:pos:R:3 pbc="F F F"
C        0.00000000       0.00000000       0.00000000
H        0.17721932       1.56372368       0.76541382
H       -0.16661708      -1.52798152      -0.74940532
H        0.94997257       0.48510346      -0.22433478
H       -0.71774238       0.14188111      -0.80796963
H        0.13708441      -1.04769802       0.16863039
C        1.76578903      -0.53883004      -0.62794608
N        1.25615871      -1.25344038       0.68616438
O       -0.72209215       0.38380900      -0.65861446
C        1.01596475      -1.21114087       1.62635207
H        1.74087274      -0.74163401       1.59479284
H        1.72077131      -0.72378838       1.59506655
C        3.08383131      -1.05204999       1.44536805
C        2.73119831      -1.50078344       1.52099323
H       -0.59160566      -0.89322269      -0.24081802
H       -0.59160566      -0.89322269      -0.24081802
H       -0.58915144      -0.87869906      -0.23943904
C       -0.77245378      -1.98727393      -0.29026699
C       -0.30658519      -2.46935415      -0.08066602
C       -0.71919864      -2.17676258      -0.25937036
C       -0.81331432      -2.20411253      -0.27702796
C       -0.32808787      -2.46028209      -0.09274831
C       -0.86270839      -2.15158415      -0.32524702
