31
Properties=species:S:1:pos:R:3 pbc="F F F"
C        0.00000000       0.00000000       0.00000000
H        0.91079640       0.19755834      -1.48118782
H       -0.87727827      -0.19304273       1.45506513
H        1.07548296      -0.12305065       0.12764971
H       -0.49810800      -0.96531260      -0.09032904
H       -0.45213839       0.56810504       0.81297410
O       -0.60515434       0.80448413       0.21792874
C       -0.01115203       0.21401587       0.47651851
C       -1.48742342       1.07619500       1.58894300
C       -1.21210015       0.98722106       1.08665216
H       -0.95149922      -0.23160958       0.30701500
H       -0.78514153      -0.35226834       0.38063034
H       -1.33363652      -0.38959754      -0.93946743
H       -1.31060863      -0.36471266      -0.94926703
H       -1.26374459      -0.33982402      -0.96684217
C        0.22114033      -0.38080746       0.30586249
C       -1.71244144       0.65384412       0.62547904
H        0.16045141      -0.45515448       1.77754331
H       -0.04059023      -0.77138436       0.69381535
H       -0.07188076      -0.84000254       0.66606724
H       -2.07868052      -1.26542211      -0.56271863
C        0.27797359      -0.91748059       0.78463554
C        0.28932959      -0.88582951       0.85489058
C       -1.30789304       0.50729597       1.81254411
C       -1.25275326       0.53369552       1.81551850
H       -0.27015018       0.17912090      -0.17105705
H       -0.31980562       0.20186949      -0.12263709
H       -0.25941157       0.06300509      -1.50826883
C       -0.22991765       0.19373715      -1.52416873
C       -0.32090932       0.23485619      -1.35375738
C       -0.23043644       0.26462662      -1.39088511
