31
Properties=species:S:1:pos:R:3 pbc="F F F"
C        0.00000000       0.00000000       0.00000000
H        0.61388952      -1.32798088      -0.96026200
H       -0.59562355       1.31681275       0.91396600
H        0.26498932       0.27217323      -1.02166617
O       -0.80303729      -1.08312154       0.06691407
O        0.31848669       0.84401906       0.97729045
C        0.08054584      -0.67807519       1.11577833
C        1.51726031      -1.05012846       0.98339301
C        2.39334536      -1.79031563       1.61639881
H        2.18958378      -2.36380529       2.49644995
C        3.64937449      -1.62662446       0.91064060
H        4.60679626      -2.06012321       1.19964230
N        3.60209775      -0.88643724      -0.16916788
C        0.68820804      -1.13493812      -2.65770364
H        0.67640811      -1.61100888      -4.00607872
H        0.72401756      -1.56379151      -4.02141190
C        1.47311234      -0.93322504      -4.53026438
C        1.60938311      -0.70772135      -4.33152533
H        0.41366851      -1.86038256      -3.92441893
C        1.69122207      -0.59536892      -4.36019087
C        1.71255064      -0.59536892      -4.29170465
C        2.43441153       0.60909140      -3.61778235
C        2.30326271       0.68178880      -3.61606097
C        1.70304298      -0.60910541      -4.27077484
C        1.35372293      -1.20357025      -3.77369642
C        2.71687722       0.66894287      -3.75810575
C        2.53755188       0.30984193      -3.64529181
C        2.53755188       0.30984193      -3.64529181
C        2.51515102       0.30984193      -3.61647010
N        3.08578086       0.83156931      -4.05575514
N        1.50220537       0.30540058      -3.40454602
