20
Properties=species:S:1:pos:R:3 pbc="F F F"
C        0.00000000       0.00000000       0.00000000
H        0.62911803       0.62911803       0.62911803
H       -0.62911803      -0.62911803       0.62911803
H        0.62911803      -0.62911803      -0.62911803
C       -0.90992737       0.88709456      -0.92195070
H       -1.42461610       0.24740863      -1.54388070
C        0.59685272      -0.00774507       0.66015637
C        1.79850793       0.09392348       1.81539905
C        0.11798459       0.45295632       0.03843349
C        1.20592833       1.07801652       1.20023155
C        0.96473551       0.93229681       0.96052349
H        2.16693115      -1.44071198       2.22289824
N        1.16050220      -0.19344831       1.41333354
N        0.28428274       0.50929809       0.26640779
C        0.17695838       1.73854482      -0.05035169
C        0.20783445      -0.81015611       0.28454909
C        1.71758628       0.58518505      -0.49061018
C        1.70277619       0.64374125      -0.51666498
C        2.10027719      -0.89703703      -0.00981963
C        2.80713558       0.89731026       0.03660822
