16
Properties=species:S:1:pos:R:3 pbc="F F F"
C        0.00000000       0.00000000       0.00000000
H        0.62911803       0.62911803       0.62911803
H       -0.62911803      -0.62911803       0.62911803
H        0.62911803      -0.62911803      -0.62911803
C       -0.91841912       0.89791858      -0.86760962
H       -1.55856752       1.47140813      -0.23025638
C        0.16025722       0.10113788      -1.96053886
O        1.14597487      -0.47516972      -3.15164232
O        1.05341506      -0.51661170      -3.25543308
H        0.54041803      -0.74992144      -3.85783768
H        1.65157342      -0.25318989      -2.59383249
H        0.55362898      -0.73859155      -3.81845188
C        2.16417527      -0.67727906      -4.24128580
C        2.17063713      -0.67727906      -4.21281004
C        2.50927925      -0.69059360      -2.75077462
C        2.50917482      -0.71721870      -2.75122595
