31
Properties=species:S:1:pos:R:3 pbc="F F F"
C        0.00000000       0.00000000       0.00000000
H       -1.58685589      -0.69598401       0.24493124
H        1.55987787       0.65266687      -0.25476244
H       -0.47581393      -0.36287913      -0.91105384
O        0.00000000      -0.90999579       0.99719906
O        0.65649360       1.15564752      -0.04892226
C       -0.06551313       0.49019849       1.28015184
O        0.48139089      -0.37045592       1.25024939
C        0.41384485       1.44000244      -0.86488265
C       -1.03115976      -0.33462858       0.71509856
C        0.98866081       1.38951015      -0.12612763
C        1.03802383       2.28687429      -1.37684751
C        0.43101710       1.16017282      -0.09836334
C        0.10502576      -0.82686228       0.36519596
H       -0.42608541       0.27665085       0.02892449
C        0.10817540       1.22413075      -0.28579861
H        2.17597818       1.22741997       0.59022754
H        2.17960167       1.02498364       0.62336159
C        0.87725985       0.56264788       0.23717436
C        1.86847270       1.39742923       0.10618228
C       -0.54390180       1.59126759      -0.24033532
H        2.16455960       1.08387506       0.61672217
C        2.43767834       2.49053240       0.60283297
C        2.52754140       2.45634222       0.41629758
H        1.60482132       0.38014191       0.71983933
C        2.37824702       2.43728924       0.26128659
H        2.00493670       2.42341018       0.52350968
H        2.01002264       2.42341018       0.51170868
H        2.04159999       2.42642379       0.49840477
H        2.04322743       2.42642379       0.49606711
H        2.38481545       2.17249346       1.31639695
