10
Properties=species:S:1:pos:R:3 pbc="F F F"
C        0.00000000       0.00000000       0.00000000
H        0.99520499      -0.25795403       1.41616499
H       -0.97882664       0.31076783      -1.36726689
H       -0.32235488       0.55182904       0.88299000
O        1.30786800       0.17572428      -0.28478178
O       -0.92870533      -0.57109690      -0.76174343
N       -0.35478812       0.59413135       1.08868361
C       -2.02183056       0.06165792      -2.67347670
C       -2.27779436       0.17697425      -2.47129536
C       -1.37692618       0.85823488       0.22480512
