8
Properties=species:S:1:pos:R:3 pbc="F F F"
C        0.00000000       0.00000000       0.00000000
H        1.31357622       1.13392138       0.22635479
H       -1.29602110      -1.08516717      -0.25853166
H        0.16840807       0.69171494      -0.82538992
O       -0.31098515       0.62176532       1.15723574
O       -0.19347674      -1.25218737      -0.40434158
N        0.49663940       0.90218753      -0.77685636
N        1.27711761       1.33529794      -0.59974355
