7
Properties=species:S:1:pos:R:3 pbc="F F F"
C        0.00000000       0.00000000       0.00000000
H       -1.07666039       0.91209501       1.03507555
H        1.03191459      -0.91651112      -1.00958240
H       -0.56728929      -0.61588109       0.69783425
H        0.99856502       0.21671624       0.37947485
O       -0.25546750      -0.18353425      -1.37446344
C        1.24445808      -0.81508678      -0.61567444
