7
Properties=species:S:1:pos:R:3 pbc="F F F"
C        0.00000000       0.00000000       0.00000000
H       -0.15352856      -1.11055124      -1.34372687
H        0.11383307       1.10800314       1.29748523
H       -0.48195526       0.41602752      -0.88472563
O       -0.58295244      -1.13655281       0.43693569
O        0.90040618       0.77047217       0.60377151
N       -0.48136431       0.30032447      -1.15853024
