8
Properties=species:S:1:pos:R:3 pbc="F F F"
C        0.00000000       0.00000000       0.00000000
H        0.91154772      -0.96352065      -1.14158010
H       -0.92773527       0.96619850       1.06295085
H       -0.00899436       0.36287913      -1.02778268
O       -0.50779074      -1.24553943       0.11523223
O        0.20699854       0.96268320       0.89403099
N        0.19032586       0.12329905      -1.26991034
N        0.67836213      -0.47831410      -1.74738479
