31
Properties=species:S:1:pos:R:3 pbc="F F F"
C        0.00000000       0.00000000       0.00000000
H        0.81994826       1.03845119      -1.14533865
H       -0.81096935      -1.01471519       1.11210549
H       -0.65411133       0.74863887      -0.44696468
H        0.32390395       0.30874163       0.99391359
H       -0.52694142      -0.92973161       0.05320904
C       -0.38291860       1.89265418      -1.06872177
H       -1.67095184       0.50418866      -0.54066098
O       -0.37086642      -2.09581447      -0.64878094
N        0.18545675       0.56694531       0.38266909
C        0.26761806       1.40653133       0.04142949
N        1.24063194       1.47442436       0.05405802
H       -0.24412459      -0.82857764      -0.18748605
C       -1.25951827      -0.58592719       1.05781257
C       -0.25137475      -0.82251853       1.60824490
C       -1.24193645      -0.96392828       1.15034688
H        0.30958948       0.75137091       1.81169963
C       -1.37748265      -0.94496065       1.58253706
C        0.72697568       0.16812766      -0.41078845
C       -1.18733907      -0.76181728       1.14855313
C       -1.93632150      -2.49952912       1.02442408
N       -1.17550862      -1.84806561       1.08493972
O       -0.49239075      -1.83932400       1.58018696
C       -1.48224890      -0.85779738       2.31910944
C        1.39051032       0.34502667       1.88449347
O       -0.78803086      -0.12737912       1.53196406
H       -0.73995054      -0.50193536      -0.18456459
H        0.26493958      -0.88745928       0.96163678
O       -0.92369395       0.21416622       1.30434024
H       -0.24285269      -0.55590719       1.59445870
C       -0.14499998      -0.89306033       2.29053926
