31
Properties=species:S:1:pos:R:3 pbc="F F F"
C        0.00000000       0.00000000       0.00000000
H       -0.74387634       0.75144321       1.39444530
H        0.74477077      -0.70727873      -1.36717606
H        0.25598073       1.04929686       0.14679664
O        0.23221713      -0.76278836       1.08937025
O       -0.27683225      -0.37672141      -1.24512780
C        0.11365715      -2.20782971       1.07213140
C        0.37613761      -2.56868458       2.55651188
H        1.37108362      -2.22374868       2.83793831
H        0.34731075      -3.65116644       2.68101597
H       -0.38199192      -2.09205484       3.21237993
C        1.16722739      -2.81631851       0.14443058
H        1.06783772      -2.97775197       1.56180811
N        1.83745337      -1.86913729      -0.26366708
H       -0.36936343       1.18573725       2.27400661
N       -0.01760858      -0.74175102       1.00597918
H       -0.86061978      -4.18806839       2.95512986
H       -0.86954939      -4.16643000       2.95715618
C       -0.32647988       0.73788273      -0.89286107
C        0.01988244      -0.86846679       1.13589978
C        0.29923037      -1.73801827       2.04691219
C       -0.05479321      -1.55389094       1.95086551
H       -0.21724236      -1.08720326       1.01212466
C       -0.79285878      -0.67816603       0.15440673
C        1.38416898      -1.21390498       2.80987310
O        1.83892238      -1.32101905       2.54123688
C        1.26827765      -1.36084819       3.01684642
C        1.19047070      -1.36084819       3.10678458
C        2.27007771      -1.66519475       2.25243092
C        1.61644375      -2.80503011       3.32993698
C        0.82763362      -2.39370441       4.02893543
