16
Properties=species:S:1:pos:R:3 pbc="F F F"
C        0.00000000       0.00000000       0.00000000
H       -0.94209695      -0.91209501       1.15889287
H        0.91061836       0.89124715      -1.14041626
H       -1.02875042       0.34493598       0.10388027
O        0.09480720      -1.33060265      -0.20738052
O        0.96089649       0.91347671      -0.10553079
C        1.12041891      -0.56416345       0.42947865
C        0.90148228       0.01216817       1.80788577
C        1.07809722      -0.56275433       3.06102943
N        1.21025515      -1.00931597       4.13434935
C       -0.10689574       1.01649857       1.19388902
N        0.27863252      -0.76420844       0.70717621
C        0.73301184      -0.18658733       0.02245034
C       -0.19630513       0.88209510      -1.05615854
H        1.87336230      -0.56334329       4.00207186
N        1.52862000      -1.74283171       2.92932773
