7
Properties=species:S:1:pos:R:3 pbc="F F F"
C        0.00000000       0.00000000       0.00000000
H       -0.78940284      -0.58260399      -1.44910741
H        0.81310701       0.54113799       1.40361094
H        0.62773520      -0.60013586      -0.65869921
O       -1.12393272      -0.64252621       0.38266665
O        0.56580836       1.10705411       0.47243062
N        0.54919297      -0.65308201      -0.96745527
