18
Properties=species:S:1:pos:R:3 pbc="F F F"
C        0.00000000       0.00000000       0.00000000
H        1.51218379       0.28803927       0.83236432
H       -1.48468029      -0.28145552      -0.80037755
H       -0.12127771       0.45083857       0.98495460
H       -0.04849949       0.74863887      -0.79075086
H       -0.74201155      -0.77575725      -0.18899411
O       -0.06903977      -0.92407358      -0.28674218
C        1.09311259      -1.26254773      -0.67110622
C        1.01163340      -1.35353601      -0.84513807
C        1.24279380      -0.58617347      -0.01950419
C        0.36064810      -2.07062769      -2.20561409
C       -1.73687708      -0.93878049      -0.55913711
H        1.82350934       0.72063309       1.46863377
H        1.81232631       0.72063309       1.47398496
C        0.26209176       0.67756093       2.00025129
C        0.58784139       0.61970109       1.86711097
C        0.77766633       0.73081481       2.02012968
C        0.59399974       0.49378163       1.65522945
