8
Properties=species:S:1:pos:R:3 pbc="F F F"
C        0.00000000       0.00000000       0.00000000
H        0.40808463      -1.53543353       0.73376250
H       -0.39246744       1.50033796      -0.72045273
H       -0.15211283      -0.00948554       1.07929182
H       -0.93988186      -0.16066855      -0.52811641
H        0.43453050       0.94710976      -0.31978995
N       -0.75428736       1.02142489       0.22768489
H       -0.41700551       1.55825806      -0.58407271
