10
Properties=species:S:1:pos:R:3 pbc="F F F"
C        0.00000000       0.00000000       0.00000000
H       -1.11229801      -0.37773508      -1.29715300
H        1.10198188       0.33998597       1.26259351
H        0.02607548      -1.03839195      -0.33039615
O        0.15240748       0.87473947      -1.01690781
O        0.02288873       0.24170834       1.30765116
C        0.29656619       2.24864531      -0.86296302
O        0.41061002       2.88645148      -1.86110950
N       -0.08503544       0.29101211       1.21267462
C       -0.25034821       0.37627101       0.94324261
