31
Properties=species:S:1:pos:R:3 pbc="F F F"
C        0.00000000       0.00000000       0.00000000
H        0.17721932       1.56372368       0.76541382
H       -0.16661708      -1.52798152      -0.74940532
H        0.98968190       0.43349874      -0.14390238
H        0.01409087      -0.73473746       0.80502272
H       -0.32070696      -0.47620246      -0.90292728
C        1.59877253      -0.20668930      -1.21687305
N       -0.61099327      -1.27318728      -0.01217037
H        0.09866487      -0.23536927       1.40704119
C        1.68979502      -1.00511503      -0.78987080
C       -0.25106221      -1.78721404       0.50000727
H        1.02144897      -0.04550889      -0.86946583
C        0.07474327      -1.17046952      -1.38750172
C        0.81362921       1.23465872       0.85171145
C       -0.31935388       0.00579253      -0.76324910
C        0.44941819       0.44271004      -1.71221447
C       -0.23510943      -0.58043683       0.95556515
C        1.21876252      -1.31476760       0.69191408
C        1.18914402      -1.16304088       0.12215579
C        2.34101200      -1.23136282       1.47325802
H       -1.53593671      -2.04233408      -1.17052674
H       -1.54414940      -2.01641893      -1.18081188
H       -0.65542388      -1.90847468      -0.57514077
C        0.86863130      -2.21492028      -0.41838908
H       -0.62850058      -3.17727423       1.34509301
H       -0.67712915      -3.20864344       1.26610315
C        0.42142117      -2.04767108      -0.59362280
H        1.92948484      -0.90693760       0.80400956
H        1.95371175      -0.85307109       0.81797659
C        1.10976374      -0.40350187      -0.42969725
H        0.34395325      -0.48636526      -0.07838231
