31
Properties=species:S:1:pos:R:3 pbc="F F F"
C        0.00000000       0.00000000       0.00000000
H       -0.74096620      -1.57716024      -0.16134168
H        0.71964204       1.54111087       0.17660521
H       -0.37840837      -0.41602752       0.93371701
O       -0.89626920      -0.03524086      -1.00893915
O        1.16960013       0.63300735       0.01535358
C       -1.99858987      -0.80932975      -0.75879109
C       -2.99454761      -0.99546731      -1.76790893
H       -2.93332362      -0.56196856      -2.76612234
O       -4.02416706      -1.69470811      -1.51523316
C       -2.13713288      -1.35512722       0.55567050
C       -3.22383881      -2.16808629       0.74293131
H       -3.44207692      -2.67010427       1.68550718
N       -4.09062767      -2.39028811      -0.26791090
O       -1.20955324      -1.03617799       1.51210451
C       -5.19110918      -3.23446226      -0.17621189
H       -5.27642822      -3.76276159       0.79626924
H       -0.63374436       0.43594515      -1.83909822
H       -5.51035309      -3.18704891       0.86490983
C       -3.81545782      -0.97965610       0.82367408
C       -3.81395388      -4.15723515       1.34632111
C       -4.85987329      -3.61085057      -0.93562895
C       -4.87736320      -3.69516373      -0.89552933
H       -2.30804920       0.47784162      -2.41642833
H       -2.31950426       0.47784162      -2.42834353
H       -2.23632622       0.44408238      -2.41234183
C       -3.36134338       0.87252510      -2.61727524
C       -3.13636255       0.85422981      -2.43455243
C       -3.51058054       0.94937837      -2.58029413
C       -3.50335550       0.90730405      -2.70790839
C       -3.80109882       0.91759145      -3.00626659
