31
Properties=species:S:1:pos:R:3 pbc="F F F"
C        0.00000000       0.00000000       0.00000000
H        0.76166695      -1.26668823       0.93694246
H       -0.71996856       1.23773539      -0.93474776
H        0.78391737      -0.53538591      -0.53566307
H       -0.98975039      -0.38071239      -0.25209442
O        0.29305875       0.11032103       1.37478876
C        0.09629144       1.33570027       0.60624331
H        0.93867862       2.02741528       0.60255742
H       -0.90034372       1.76919901       0.68928915
C        0.14547592      -0.20189798      -1.25499535
C        0.26729789      -1.15868211       1.94730532
C        0.67711401      -1.71725607       2.14273596
C       -1.58586574      -0.53049290      -0.92314732
C       -0.05203682      -0.67837465       2.70944834
H       -0.00664727       2.08298945       1.33662820
H       -0.20356217      -0.89862937      -1.47598779
H       -0.25264853      -0.60303652       0.43212202
C        0.09967798      -0.96842796      -0.75381804
C       -0.28818870       0.09772372      -0.14733610
C        0.12112517       0.74856609      -0.50306779
C       -0.09063981       0.90544301       0.00755267
H        0.01228335      -0.77757484      -2.37245655
C        1.11496007       0.64344537      -0.24277705
C        0.33159733      -1.24085438       0.25772488
C        0.83627391      -0.51028782       0.57847631
C       -1.05162597       0.43498352      -0.34780905
H       -0.86844963       0.44372734      -0.69549537
O        0.07754111      -0.64513159      -1.66631746
C       -1.27030396      -0.74063724       0.31096256
C        1.45931864      -0.61591434      -0.61448503
C        1.61612380      -0.31296018      -1.45812631
