31
Properties=species:S:1:pos:R:3 pbc="F F F"
C        0.00000000       0.00000000       0.00000000
H        0.65122724      -0.63968152      -1.49305296
H       -0.59782618       0.62506020       1.47512734
H        0.91556102      -0.58420897       0.09245068
O        0.18784322       1.12370145      -0.72422945
N       -1.10122681      -0.46275407       0.71081394
C       -0.74339139       2.20885181      -0.71200502
O       -0.48245412       3.13830423      -1.40779877
C       -2.34024596       0.32512397       0.64026070
H       -3.13907266      -0.17689407       0.09440982
C       -1.78994823      -0.32225052       2.00186777
H       -2.25950623      -1.25000989       2.32878828
C       -0.39100504      -0.51359475       1.59291363
O       -2.57403636       1.43941021       0.07758236
H       -1.55140245       2.10466886       0.01212442
H       -2.24289799       2.55978847      -0.14868969
H       -2.32110381       2.19205809      -0.08256125
C       -2.56147146       3.39937449      -0.00136031
C       -3.23278952       2.29771161      -0.23235337
C       -2.13832569       3.43138695      -0.38844025
C       -2.51166058       3.91016769      -0.33932388
C       -2.01214290       3.88397598       0.20539707
C       -2.05714440       3.88397598       0.23094296
C       -2.11106944       3.47355366      -0.26073438
C       -1.52553999       4.75898886      -0.18711595
C       -1.52434337       4.74149466      -0.11527334
C       -1.55360174       0.61309808       0.28478715
C       -1.88647175       0.70007652      -0.55766881
C       -1.08568788       1.07379949      -0.34522119
C       -2.59206772       2.32771111      -1.49491358
C       -2.33267164       3.21665907      -0.75906205
