7
Properties=species:S:1:pos:R:3 pbc="F F F"
C        0.00000000       0.00000000       0.00000000
H       -1.26542759       1.17962408       0.26396361
H        1.21441054      -1.17446983      -0.26443186
H       -0.95925635      -0.41602752       0.30797330
O       -0.08763423       0.76278836      -1.11039305
O        1.06640470      -0.50762987       0.61154842
N       -1.18578160      -0.23443891       0.45062068
