17
Properties=species:S:1:pos:R:3 pbc="F F F"
C        0.00000000       0.00000000       0.00000000
H        0.62911803       0.62911803       0.62911803
H       -0.62911803      -0.62911803       0.62911803
H        0.62911803      -0.62911803      -0.62911803
C       -0.87604135       0.88633257      -0.88761693
H       -0.24096203       1.51777220      -1.50895226
C       -1.79454446       1.74949312      -0.09300762
N       -2.29357338       1.34126616       1.02431941
O       -3.13198996       2.33053446       1.52482343
H       -3.45178127       1.94476032       2.35537243
O       -1.61352921       0.04634416      -1.81121278
C       -2.95974445       0.03459602      -1.91153371
H       -3.46058059       0.74086720      -1.24938297
N       -3.53781843      -0.72455335      -2.71901226
H       -4.53706932      -0.59308553      -2.65333486
C       -2.16401935       3.06702042      -0.57270330
N       -2.45034814       4.11195612      -0.95822167
