11
Properties=species:S:1:pos:R:3 pbc="F F F"
C        0.00000000       0.00000000       0.00000000
H        0.62911803       0.62911803       0.62911803
H       -0.62911803      -0.62911803       0.62911803
H        0.62911803      -0.62911803      -0.62911803
N       -0.88286746       0.86316049      -0.83402473
C       -0.91972399       0.50109529      -2.23760891
N       -1.71915865      -0.01592135      -3.04760695
H       -2.59274340      -0.30766806      -2.58648562
O        0.24149406       1.12286067      -2.53337717
C       -0.11702538       1.96183372      -1.44007850
O        0.08450770       3.10161614      -1.16371047
