26
Properties=species:S:1:pos:R:3 pbc="F F F"
C        0.00000000       0.00000000       0.00000000
H        0.62911803       0.62911803       0.62911803
H       -0.62911803      -0.62911803       0.62911803
H        0.62911803      -0.62911803      -0.62911803
C       -0.89833593       0.87579399      -0.91020608
H       -1.44178736       0.25025487      -1.52197468
C        0.24929881       0.80402154       0.27312839
C        0.00494158       1.02593839       0.05438972
C        1.27254593      -0.03510588       1.19014955
C        1.29611111      -0.02119052       1.21126831
C        1.59533048       0.82360375       0.36883783
C        2.13536978       0.02188163      -0.20869172
C        0.31702942       0.27202722       2.54983854
C        1.45324564      -1.51363254       1.43794811
C        0.36748362       1.14428329       0.92557180
C        1.73255253      -1.14208174       1.67733729
C        2.53677988       0.78504068       2.36367750
C        2.54704952       0.75489545       2.37321043
C        1.91544437      -0.97464079       0.29212171
C       -0.04857457       0.54156667       1.34695399
C        1.76271176      -1.11883116       0.36082739
C        0.02146447       0.73105401       1.09691799
C        2.31489611       0.34601063       2.09190035
C        2.31331038       0.35134092       2.12286949
C        1.44609475       1.00695336       1.08928585
C        2.27478123       0.63271612       1.99763727
