30
Properties=species:S:1:pos:R:3 pbc="F F F"
C        0.00000000       0.00000000       0.00000000
H        0.99520499      -0.25795403       1.41616499
H       -0.97782844       0.48435602      -1.31656659
H       -0.44539446       0.73209548       1.54872727
H       -0.75633752       0.43349874       0.65431774
C        0.55102956       1.02336860      -0.93229878
C        0.22669482       1.47946429      -2.18277144
H       -1.26254261       0.83247215      -2.88737726
H       -0.31612450       2.42424679      -2.39450812
O       -0.59579706       0.51400626      -1.80764806
C        1.55943751       1.85525048      -2.44862819
C        1.54890072       1.84992027      -2.39871669
C        0.60581172       1.66347575      -3.75735331
N        1.79134178       1.87756872      -1.61930931
C        1.36391819       1.69607484      -1.06135249
C        1.29559183       1.72279799      -1.09926558
C        1.31837225       1.72279799      -1.09503150
H       -0.65988976       1.31803083      -3.29308891
H       -2.23156548       1.18267238      -4.00330734
H       -2.23156548       1.18267238      -4.00330734
H       -2.23156548       1.18267238      -4.00330734
H       -2.23156548       1.18267238      -4.00330734
H       -2.23156548       1.18267238      -4.00330734
H       -2.23156548       1.18267238      -4.00330734
H       -2.23156548       1.18267238      -4.00330734
H       -2.23156548       1.18267238      -4.00330734
H       -2.23156548       1.18267238      -4.00330734
H       -2.23156548       1.18267238      -4.00330734
H       -2.23156548       1.18267238      -4.00330734
H       -2.22918081       1.15267634      -4.00222969
