13
Properties=species:S:1:pos:R:3 pbc="F F F"
C        0.00000000       0.00000000       0.00000000
H        0.76166695      -1.26668823       0.93694246
H        1.60666299      -0.64699215       0.36459783
H        1.30336678      -1.05031919       0.57529229
O       -0.34840769      -0.56704855       1.59961629
O        1.76265430      -0.41511381       0.27835035
C        1.07899010      -1.89970803       0.65504944
C        1.10085559      -1.54207563       0.68929780
C        0.99339950      -1.48550558       0.71949303
N        0.04102316      -0.48364380       0.28878224
C       -1.10514629       0.07402408       2.32712674
C       -1.09229827       0.07402408       2.34025884
N        0.19763422      -0.45985720       0.34771907
