31
Properties=species:S:1:pos:R:3 pbc="F F F"
C        0.00000000       0.00000000       0.00000000
H        0.79476082       1.13392138      -1.07008135
H       -1.64478993       0.58926231       0.28342968
H        1.63683653      -0.61822087      -0.26733148
C        1.24521732       0.56657505      -0.72864544
C        2.21749735      -0.55294883      -0.05171490
C       -0.86075759      -0.55392110      -0.78509009
C        0.58479345      -1.34761536      -0.95102376
C        1.67339718      -0.04463842       0.34906450
C        1.01771975      -0.42366105      -0.12983480
C        2.43998408       0.54077441       1.11230445
C        2.23961210       0.62156743       1.18552685
H        1.04309916       0.99464357      -2.10150242
H        1.07835066       0.97620088      -2.08968925
C        0.87730181      -0.74834692      -0.54710782
C       -1.43453586      -0.67742592       1.47245908
C       -1.41375887      -0.67742592       1.46859717
H       -0.79660416      -0.70423061      -0.31865698
H        2.09605265      -0.11094713       0.40013272
C        1.19201207      -1.06008804      -0.75647879
C        1.19186282       0.26386750       0.46692109
C        2.35585189      -1.66516578      -1.26263547
C        1.23441923      -1.47105694      -1.14757550
C       -0.61030149      -0.68447483       1.36609674
C        0.68911684      -0.69587487       1.20032442
H        0.03301312      -0.68060184      -1.25721502
H        0.21694437      -0.54031730      -0.64644575
H        0.85369933      -1.08554578      -0.76221573
C        0.04630852      -1.34330261      -1.09354818
C        2.10700703      -0.56972420       0.14334792
C        1.90592074      -2.07947350      -0.98484910
