31
Properties=species:S:1:pos:R:3 pbc="F F F"
C        0.00000000       0.00000000       0.00000000
H        0.40808463      -1.53543353       0.73376250
H        1.39888501      -1.01377904      -0.27905101
H       -0.26608789       0.95635599      -0.45019963
H       -0.62468958       0.57296050       0.06307936
C        1.00647783       0.27636290      -0.91800016
C        1.14423084      -2.03646445       0.54626215
C       -1.10305190       0.65326893       0.35413948
H       -1.61733651       0.30726531       0.96462512
C       -1.38499558       1.84367275      -0.26258156
H       -0.39329547       1.40055799       0.55489838
H       -1.68366051       0.84553814       0.82192802
C       -1.80226791      -0.39293563      -0.40576246
C       -2.43458200       0.25955260       0.41827559
C       -2.02534676       1.57221627       0.84097242
C        0.44605982       0.33231089      -0.78591943
H        0.07815063      -0.00880826      -0.46879497
H       -3.26427984       0.16303504       0.17931429
C       -0.40257359      -0.42974275      -0.23963191
C       -0.77929372      -0.46070138       0.09249479
H       -0.77102804      -0.00844126      -0.58850998
H       -0.82259303       0.04567338      -0.65096390
C       -0.64190531       0.92950869       0.88324887
C       -1.40900719      -0.33037558      -1.00782216
C       -1.39812267      -0.39659023      -1.02746546
H       -0.21413767       1.27495432       0.32949027
C       -0.32317078       1.74274075      -0.98814309
H       -1.50592566      -0.66236478       0.07245807
H       -1.48802626      -0.66236478       0.12993340
H       -1.42923176       1.50737143      -1.86343098
H        0.69836450      -0.69012773       0.36329004
