13
Properties=species:S:1:pos:R:3 pbc="F F F"
C        0.00000000       0.00000000       0.00000000
H       -1.08498108      -0.19755834      -1.35878015
H       -1.27237570      -1.14688051      -0.44566989
H       -1.16200626      -0.76003116      -1.09772074
H       -0.57507002       0.98215908      -0.86576897
H       -0.49632737       0.78733408      -1.08566201
C       -0.45541859       0.42949826      -1.57875514
C       -0.74516362       2.09437609       0.34110254
C       -0.94572568       0.46798307      -1.51871395
C        0.01143745       0.32676786      -0.80442208
C        0.87253118       0.10589281      -1.32591701
C       -1.10961437       3.44199133       1.39637756
C       -1.04094791       3.42235708       1.44177294
