7
Properties=species:S:1:pos:R:3 pbc="F F F"
C        0.00000000       0.00000000       0.00000000
H       -0.15352856      -1.11055124      -1.34372687
H        0.08693910       1.17446983       1.23982203
H       -0.00881637       0.41602752      -1.00744367
H        1.01373100      -0.33288628       0.30599889
O        0.12118404       1.27291954      -0.54505843
C        0.16581312       0.58279878       0.72939831
