31
Properties=species:S:1:pos:R:3 pbc="F F F"
C        0.00000000       0.00000000       0.00000000
H        0.81975007       1.48952162       0.41452587
H       -0.69196904      -1.55377364      -0.17624803
H        0.90143812       0.29133117       1.49513614
H        0.38564724      -0.46804190       0.90571088
C        0.13617852      -0.91705233      -1.19187593
H       -0.46812078      -0.68177730      -2.06798506
C        1.29017568      -1.71374238      -1.33909619
C        2.32203245      -2.34439111      -1.37975097
C        3.49862146      -3.15238166      -1.46743107
H        3.34173799      -4.21966267      -1.31123257
O        4.73962307      -2.66965270      -0.89350981
N       -0.49717444       0.11658037      -1.39975870
N        0.45098290      -0.44256631      -0.86350965
H       -0.31596494      -1.83635044      -1.87257862
C       -0.01885435      -0.52231830       0.35673261
C        1.24303687       0.41563165      -0.41162741
C       -0.80466253      -0.11649930       1.76575637
C        0.20162256      -1.18099642      -0.23117280
C        0.08756155      -0.26627979       1.66776752
H        0.79693985      -0.80663407      -0.78280354
C        1.45948350      -1.14468360      -0.37139344
C        1.60093904      -0.98358589      -0.44461262
C       -0.28176913      -0.94359720      -1.06386471
C        1.95014536      -0.93184471      -0.17408502
H        0.52029753      -1.08918285       0.80262655
H        1.98580050      -0.84064609       0.53686631
C        2.03997707       1.17733192      -0.65981692
C        0.96429098      -0.84579486      -1.04750741
C        1.21607733      -1.81459367      -0.28272590
H        1.53398347      -1.14826274       0.46389189
