9
Properties=species:S:1:pos:R:3 pbc="F F F"
C        0.00000000       0.00000000       0.00000000
H        0.63023949       0.34793884      -1.59506524
H        1.25130856      -0.41207308      -1.18208253
H        0.77236766      -0.07264240      -1.47887409
O        1.27533352      -2.12010717      -1.10373211
O        1.05917430      -1.17690349      -1.21065927
C        0.90685999       1.60012627      -1.24235225
N        0.67561936       0.26160252      -1.46301627
C        0.94873071      -0.55778629      -0.61776090
