27
Properties=species:S:1:pos:R:3 pbc="F F F"
C        0.00000000       0.00000000       0.00000000
H        0.80095297      -1.54981339       0.13801982
H       -0.72115993       1.54111087      -0.17030092
H        1.08911717       0.02845373       0.03336835
O       -0.42071584      -0.54485613      -1.18449509
O       -0.64837724       0.84401906       0.79758215
N        1.22445667      -0.16791432       0.36960727
N        1.01812470       0.22283630      -0.42590559
C        0.91922808       0.76769245      -1.67900157
H        1.23132420       0.67324668      -2.04076576
H        1.06044507       0.72966307      -2.03756094
C        1.99362445       0.63905001      -3.10557914
C        1.72657943      -0.84423894      -0.06765878
C        0.90352666       0.71519911      -1.61272693
H        2.43252540       0.31617546      -1.35191596
C        0.84808218       0.80086321      -2.91956568
C        0.50830853      -0.06517309      -0.80132544
C       -0.11849105       0.78043807      -1.83242178
C        1.36240363      -0.13685726      -1.19581246
C        1.32163334      -0.18387239      -1.21761227
C        1.32163334      -0.18387239      -1.21761227
C        0.14091045       1.11515629      -4.02574205
C        0.16037798       1.11515629      -4.03794909
C        0.17737401       1.09225893      -4.05435085
C        0.90254575       0.28631592      -4.71577406
C        1.04082251       0.02786672      -4.89911318
C        1.37608922       0.95823848      -4.69332790
