15
Properties=species:S:1:pos:R:3 pbc="F F F"
C        0.00000000       0.00000000       0.00000000
H       -0.75493461       1.15694797       1.07426345
H        0.73300427      -1.21701348      -0.95167220
H        0.56070673       0.27217323       0.89421970
O        0.02532916       0.94414967      -0.96459228
O       -0.63411766      -1.02989805      -0.03610846
C        0.00997657      -1.14491355       1.28025472
H        0.42787477      -1.22863233       2.26170850
C       -0.18301600       0.01073396       1.90964413
H       -1.00446582       0.44367754      -0.57324970
O       -0.81632006      -1.15586746      -1.63079703
H       -0.52086437      -0.72526443       1.92591739
H        1.09418321       0.02603638       2.42522526
H       -0.65009433       1.52744281      -2.37614083
H       -0.60028088       1.52744281      -2.39891386
