6
Properties=species:S:1:pos:R:3 pbc="F F F"
C        0.00000000       0.00000000       0.00000000
H       -1.15843868       0.88596386       0.96725613
H        1.12364578      -0.86571330      -0.95501697
H       -0.55040908      -0.67694914       0.65336740
H        0.98331141       0.27716723       0.43402326
O       -1.10843420       0.36705923       0.89305055
