31
Properties=species:S:1:pos:R:3 pbc="F F F"
C        0.00000000       0.00000000       0.00000000
H        1.35357082      -0.28803927      -1.07115662
H        1.13139713      -1.30222571      -0.39628986
O        0.30933931       0.50077927       1.23710454
N       -0.14186436       0.66192049      -1.07453918
C        0.40042245       1.94768560       1.26286793
H        0.34427485       2.24351740       2.33124542
H        1.40087545       2.20144820       0.91244328
C       -0.64598477       2.60190749       0.46416670
C       -0.74923259       3.48400259      -0.60510713
H        0.07613516       3.94345665      -1.10766995
N       -1.94113910       2.25482416       0.83050913
H       -2.15559435       1.63998032       1.57621384
C       -2.13189912       3.64317822      -0.83092731
H       -2.59852886       4.23645830      -1.56084168
H       -2.67747998       2.72920823       0.28860378
O        0.55549681       2.33747387       0.96955299
C       -1.61645472       3.39112878       0.50992978
C        1.38884819      -0.90144402      -0.39989680
C        1.62071109       0.84379476      -1.62944543
C        0.05940326       0.76237148       0.56005502
C        1.33489978       0.23207739      -0.39023221
C        0.19582520       0.49248108      -1.30660367
C        1.27632809      -0.02453557      -1.66396344
C        0.86917388       0.59521145      -0.70315707
C        0.79038143       0.59521145      -0.62539208
N        1.48906088       0.24816680       0.54678422
N        1.38406694       0.53497595       1.98536229
C       -0.13178542       0.27528563       2.51439071
C        0.96619248      -0.61295772      -0.51217645
C        2.59301090       0.08010416      -1.35052276
