18
Properties=species:S:1:pos:R:3 pbc="F F F"
C        0.00000000       0.00000000       0.00000000
H        0.61388952      -1.32798088      -0.96026200
H       -0.56189543       1.47087669       0.66700232
H        0.38413325      -0.01540311      -1.72774446
H       -0.39982244       0.83937204       0.56894273
C       -0.49117336       1.57768309       0.44018343
H       -0.01431394       1.00298858      -0.45902234
C       -0.45900282      -0.25861835       1.24348950
C       -0.64665312       1.69066465       0.77503777
C       -0.36048236       0.88476139       0.46402976
H       -0.92158985       2.55566692       1.12661481
H        0.65902662       1.22974420       1.71237636
C       -0.87205970       0.10592580       1.94531310
O       -0.02139077       1.46011889      -0.69047213
H       -1.04029822       0.89346260       0.13163206
H       -0.56743222       3.29214549      -0.06863841
H       -0.51884013       3.25220299      -0.19172922
H       -0.50853932       3.24094152      -0.22115347
