31
Properties=species:S:1:pos:R:3 pbc="F F F"
C        0.00000000       0.00000000       0.00000000
H        0.81212765       1.54981339      -0.03199755
H        1.14240754       0.92251897       0.98831183
O       -1.14770484      -0.28033933       0.76959836
H       -0.30524567       0.19809182      -1.02746487
H        0.69297874      -0.83937204       0.05774320
C       -0.72064680      -0.66145587       2.08004475
H       -1.63122368      -0.85954767       2.64547253
H       -0.11822021      -1.56874084       2.03515148
O        0.02279109       0.39062488       2.70078993
C        0.00234224       1.51758671       1.92204916
O       -0.77115971       1.72003722       0.98737937
N        0.95536405       2.41824436       2.38320374
C        1.10318661       3.69942617       1.81327415
H        1.88238645       4.23481226       2.35577655
C        0.01880372       4.61647844       1.30021787
H        0.01268800       5.64894533       1.64960909
H       -0.94524270       4.17391205       1.16004312
C        1.06447709       4.10719395       0.33912206
H        0.66074711       3.38658047      -0.37208652
O        2.06185055       1.69381475       0.57282841
H        2.88694644       1.25952077       0.09001920
C        3.50841475      -0.01777387      -0.28839013
H        2.73317981       0.04873174       0.05379045
H        0.52847046       0.83099240      -0.68233168
H        0.30703911      -1.19214225       0.92186314
H        2.26946902       1.84858727      -0.44473708
H        1.49006414       0.49229342       1.90979660
H        0.82734990       0.87226725      -0.40931731
C        1.50524580       0.86774367       0.40356654
H        1.99613881       0.76275551       1.18644667
