31
Properties=species:S:1:pos:R:3 pbc="F F F"
C        0.00000000       0.00000000       0.00000000
H       -1.47737110      -0.75144321       0.56143045
H       -1.74038303       0.19981615      -0.25305596
O        0.50051486       1.11521399       0.66172576
H        0.52922136      -0.90728503       0.29130384
C        0.72872251       0.96392143      -0.76466793
H        1.77690434       0.87863779      -1.05127025
C       -0.10254771       1.98864686      -1.57794845
C       -0.51474983       1.39606619      -2.88141918
N       -0.83044422       0.92041081      -3.87971163
O        0.64072734       3.17893791      -1.85298872
H        1.33177066       2.98608041      -2.50580168
C       -1.31841683       2.37068820      -0.73142356
H       -1.88093102       3.17262411      -1.20951986
H       -0.96182466       2.69757652       0.24534929
C       -2.19722533       1.12744224      -0.57998759
H       -2.69480467       0.85027504      -1.53271651
H       -1.24635601       1.49032140      -0.97019970
C       -1.34553921       4.00569296      -0.51114959
N       -2.74387550       0.86526120      -0.43091160
C       -2.93679428      -0.34692585      -0.62210077
H        0.08734500       0.58452970      -0.46336639
H       -0.50507444       1.29708934      -1.28967249
C       -1.46862566       1.44705081      -0.94084334
C       -2.60727453       1.21442878      -0.80569649
C        0.81003398       2.17251682      -1.11018944
C        0.81108862       2.20678496      -1.11004555
C        0.22873384       1.17268479      -2.69471574
C       -0.53802705       1.95576739      -0.66265017
H       -0.56693560       2.53962755      -0.58456975
H       -0.54222155       2.53962755      -0.58283675
