31
Properties=species:S:1:pos:R:3 pbc="F F F"
C        0.00000000       0.00000000       0.00000000
H        1.31589174      -0.40741688      -1.07932234
H       -1.26512766       0.45574069       1.05633771
H       -0.39254946      -0.21671624      -0.99349797
H       -0.08135916      -0.86306459       0.66075689
O       -0.22818838       1.32786560       0.53591138
C       -1.15032101       0.58850700       0.96047819
C       -0.17857851       0.33622956       1.47988987
C        0.62602389       1.99406338       0.14990479
C        0.64087975       2.00564957       0.14319164
N       -1.55601001       0.06366313       1.42529559
C       -2.07447863      -0.52641839       1.70842099
C        0.09541045      -0.47690707       1.78293872
C        1.90917397       2.93794632      -0.35153013
C        0.91726196      -0.12958130       1.60398459
C       -0.00301218      -0.51506305       1.74929106
C        1.30746579      -0.02746966       2.17207408
C        0.68254757      -1.00742579       2.72483468
C       -1.11214030      -0.64511389       0.92641926
C        1.31006110      -0.07804337       2.14958596
C       -0.55394214       0.21449614       0.90863818
C        0.72647834       1.59742260       1.36389732
C        1.72017741      -0.26457047       1.55676496
C        0.77576458      -2.46407557       1.75944448
C        0.36430821      -1.69277978       2.68069649
H       -0.57777965      -2.07389641       3.68673754
H       -0.55544031      -2.09782600       3.69799590
H       -0.55544031      -2.09782600       3.69799590
C        0.73891765      -1.77236056       0.91785544
H       -0.49673676      -1.29793298       1.64219046
H       -1.53645170      -1.25051963       1.31839406
