31
Properties=species:S:1:pos:R:3 pbc="F F F"
C        0.00000000       0.00000000       0.00000000
H       -1.60571611      -0.16726613       0.67542207
H        1.56469154       0.25205794      -0.64210892
H       -0.30697015       0.67694914       0.79725051
H        0.26477072      -0.98234576       0.39114255
O       -0.98951745      -0.06133281      -1.00259244
C        0.64440650       0.45284522      -1.28832030
N        0.85928655       1.60099220      -2.18077922
C        0.70706451       2.73167324      -1.22240210
H        1.32643998       2.62557864      -0.30740631
H        0.91754401       3.69698572      -1.68280339
O       -0.66100681       2.67034054      -0.88666791
C       -0.91613865       1.27541280      -0.70232511
N       -2.09426403       0.48807871      -0.89473921
C        1.65654564       0.42120695      -1.74193704
H        1.53255188       1.05264664      -0.86215925
H        1.94882786       0.58622944      -0.98283327
C        0.00420475       0.98001051      -1.66293776
C        1.53817391      -0.95657670      -0.13753206
C        1.17720771      -0.10665935      -0.23233998
C        2.97055578      -0.27703589      -1.36091185
C        1.86322117      -0.72244751      -1.44341373
C        0.66406727       0.30741322       0.33522552
C        1.57876539      -0.67677963      -1.43000245
C        2.52892470       1.28698969      -1.00568891
C        0.09610641       0.55490470       0.33831882
N        1.74662352       0.56753027      -1.60278928
H        1.69249225       0.73585498      -0.11185133
H        1.55335248       0.64669228      -2.31401396
H        2.78353930       1.12756073      -0.80871558
H        1.52383399       0.62303656      -2.32675433
