11
Properties=species:S:1:pos:R:3 pbc="F F F"
C        0.00000000       0.00000000       0.00000000
H       -1.73949683      -0.07612228       0.17564940
H        0.60118759      -0.67556745      -1.52153814
H       -0.55263793       0.73209548       1.51377809
C       -1.20344484       0.28169015       0.93534416
C       -0.03541403       0.50290537       1.01130176
N        1.08518708       0.80293500       0.24557739
C        1.42022133       0.13380423       0.19338548
C        2.57392573       0.14537832       0.85499752
C        2.77913475       0.96525955       1.90770006
C        3.01013517       0.78180528       1.33747220
