8
Properties=species:S:1:pos:R:3 pbc="F F F"
C        0.00000000       0.00000000       0.00000000
H        0.65122724      -0.63968152      -1.49305296
H       -0.49317572       0.62506020       1.51333213
H       -0.70996469      -0.76231354      -0.32082319
H       -0.73297167      -0.12105453      -0.55946231
C       -0.62394387      -0.68582976       1.33066964
C       -0.20280570       0.23505795      -0.92037755
C        0.60804826       0.00050652      -0.26001072
