31
Properties=species:S:1:pos:R:3 pbc="F F F"
C        0.00000000       0.00000000       0.00000000
H       -0.28214505      -1.22389758       1.21859157
H       -0.84667921      -0.16726613       1.52238405
O        1.20228577       0.65204513       0.07902213
N       -0.20336145      -1.15268791      -0.54226691
C        2.26266003      -0.00656557      -0.61864311
H        2.44332147      -1.00693607      -0.17286336
H        1.97456241      -0.18597294      -1.65445781
C        3.52597666       0.73764414      -0.51337594
N        4.56091070       1.27650750      -0.42713895
H        0.63039815      -1.61108840      -0.93674546
C       -1.13560474       0.68624467       0.67791444
H       -2.04212761       0.35935634       0.16854244
C       -1.08881295       2.26809692       1.21125352
H       -1.72724009       2.42581749       2.05531192
C       -1.80339420       2.38183784       2.15599465
C       -1.97688210       1.68637037       2.52328253
H       -1.03154564       2.81505728       1.11861539
H       -1.02388990       2.77421403       1.10830760
C       -1.78264523       3.32119393       0.78878218
C       -0.69509816       1.04110253       0.42412508
C       -0.51046735       3.30006742       0.37277198
C       -1.31644905       0.60269964       1.62055802
C       -1.39855564       0.63931203       1.70523345
C       -1.28470087       0.99543750       1.45221937
C       -1.27721334       1.00701559       1.51171589
C       -0.77716213       2.33616734       2.02066064
H       -1.53172588       3.77676558       1.99702656
H       -1.55019021       3.78203201       2.01372027
H       -1.54307234       3.78203201       2.02720475
C       -1.98865867       3.54176617       3.57659912
