31
Properties=species:S:1:pos:R:3 pbc="F F F"
C        0.00000000       0.00000000       0.00000000
H       -1.67314243       0.46640128      -0.21344975
H        1.59691727      -0.51282471       0.33311108
H       -0.26497281      -0.17611550      -1.02160275
N       -1.12309277      -0.13476872       0.84178281
N       -2.36755991      -0.43509319       0.68302095
N       -0.57927120       1.34003472      -1.04837942
C       -1.43680382       0.09730867       2.19670868
N       -2.73264265      -0.14439967       2.37356186
O       -0.50381631       0.54674608       3.06275654
C       -1.32074761      -1.26030529       1.62116086
H       -0.90117097       1.18802595       3.67248511
C       -0.54263461       0.76370311      -2.44358444
H        0.47728837       0.54698688      -2.76121712
H       -1.17691386      -0.12200820      -2.47970200
C        0.62761652      -0.05666596      -2.02215242
N        1.90783751      -0.29203522      -1.43009353
C       -1.01079988       2.62121654      -0.64781201
H       -1.30384743       3.27582836      -1.52102780
H        2.54675436      -2.07778549      -1.88327920
C        2.67191005       0.63517797      -0.81449032
H        3.21224928       1.29715633      -1.49118626
H       -0.27112171       0.39312693      -0.91260266
C       -0.59720951      -0.34065270      -1.45809245
H        1.48207319       0.76413155      -0.26384580
H        1.49493647       0.80670035      -0.29908073
C        1.25418591      -0.12549829       0.58416659
C        1.33588767      -0.09537482       0.48607266
C       -1.72734702       3.08575535       0.37182641
C       -1.77188945       3.04210162       0.35841715
C       -1.87402427       2.33324242      -0.65158904
