23
Properties=species:S:1:pos:R:3 pbc="F F F"
C        0.00000000       0.00000000       0.00000000
H       -0.08160027      -1.13392138      -1.33043623
H       -1.01679742      -0.10653890      -1.42030621
H        0.84541613       0.67694914      -0.12292574
C       -1.42726517       0.45284522       0.19478986
H       -1.75564456       1.49123716       0.23960632
C       -1.93698788      -0.57052338       1.15029883
H       -3.00341320      -0.76861519       1.25798345
C       -1.01380289      -1.57846081       1.24351931
C       -1.37164342      -2.96158981       1.30518222
H       -2.46272302      -3.14428902       1.39609778
O       -0.55980808      -3.91014767       1.24468374
N        0.23036020      -1.16198814       0.80100930
H        0.84374881      -1.90752482       0.44208175
O       -0.99825323      -0.02322552      -1.08356988
H        1.44749093      -2.94632459      -0.12825954
H        1.43741679      -2.94632459      -0.13873839
O        1.39437103      -2.79310083      -0.04275793
C        1.74540484      -4.10332108      -0.84485531
C        1.55617690      -2.14109421       0.98802626
C       -0.53930116       0.18091983       1.88806653
C       -0.46886694       0.09741056       1.82925510
C       -1.47785997       1.06004453       2.50583982
