5
Properties=species:S:1:pos:R:3 pbc="F F F"
C        0.00000000       0.00000000       0.00000000
H        0.17721932       1.56372368       0.76541382
H       -0.15347609      -1.52798152      -0.75220656
H       -0.96003461       0.44256631       0.16543286
N        0.17400220      -1.27074063      -0.58569580
