16
Properties=species:S:1:pos:R:3 pbc="F F F"
C        0.00000000       0.00000000       0.00000000
H        0.62911803       0.62911803       0.62911803
H       -0.62911803      -0.62911803       0.62911803
H        0.62911803      -0.62911803      -0.62911803
C       -0.88749290       0.89791858      -0.89921981
C       -0.00721276       1.80582166      -1.76044941
H        0.60645050       2.46779990      -1.14946532
N        0.11480767       1.83897412      -3.02413869
H        0.84362537       2.53314304      -3.32322669
C       -1.67488909       1.77853179      -0.05837154
C       -2.27737474       2.54639888       0.65681386
C       -2.99748874       3.39724302       1.45330501
N       -3.60390234       4.13972616       2.12403631
C       -1.83114302       0.05552620      -1.75991559
H       -2.50471926       0.66667372      -2.39622760
O       -1.86770856      -1.15390754      -1.75427175
