13
Properties=species:S:1:pos:R:3 pbc="F F F"
C        0.00000000       0.00000000       0.00000000
H        0.62911803       0.62911803       0.62911803
H       -0.62911803      -0.62911803       0.62911803
H        0.62911803      -0.62911803      -0.62911803
C       -0.90309423       0.89791858      -0.88355011
C       -1.79766726       1.76241207       0.00711697
H       -2.43497753       1.14653099       0.64164460
N       -1.83910429       3.02605200       0.12709881
H       -2.51767111       3.30056262       0.85172999
C       -1.81138575       0.05602628      -1.71199548
N       -2.52349901      -0.59375650      -2.33903313
C       -0.06118035       1.64212823      -1.83130062
N        0.63656849       2.18946552      -2.56346703
