16
Properties=species:S:1:pos:R:3 pbc="F F F"
C        0.00000000       0.00000000       0.00000000
H        0.62911803       0.62911803       0.62911803
H       -0.62911803      -0.62911803       0.62911803
H        0.62911803      -0.62911803      -0.62911803
C       -0.87604135       0.88633257      -0.88761693
H       -0.25974739       1.53313947      -1.51205420
N       -1.76066613       1.69568992      -0.03715980
C       -3.01677322       1.41724515      -0.13076583
H       -3.74368000       1.90234864       0.52067900
N       -3.45696974       0.51658750      -1.09364748
H       -4.12023544      -0.16336894      -0.81465399
C       -1.75890791      -0.02317208      -1.81403255
O       -1.34661615      -0.80719787      -2.63830066
C       -3.15686035       0.27307302      -1.39205456
C       -1.81618667       2.62785959       1.01928496
C       -1.79711604       2.64613008       1.00372124
