18
Properties=species:S:1:pos:R:3 pbc="F F F"
C        0.00000000       0.00000000       0.00000000
H        0.62911803       0.62911803       0.62911803
H       -0.62911803      -0.62911803       0.62911803
H        0.62911803      -0.62911803      -0.62911803
C       -0.88749290       0.89791858      -0.89921981
C        0.00000012       1.79583716      -1.79843950
H        0.62410820       1.16439748      -2.43079424
H        0.62173486       2.44264412      -1.17941928
H       -0.61294556       2.42727685      -2.44161987
C       -1.73709369      -0.00998455      -1.79072869
N       -2.93985653       0.00089335      -1.45051980
C       -1.83881342       1.69651604      -0.07621968
N       -2.53016829       2.31867528       0.56553209
O       -3.73958802      -0.82393372      -2.23294425
H       -4.61729479      -0.68095344      -1.84553361
C       -1.17586994      -0.77614444      -2.91274691
H       -1.90853608      -1.30444384      -3.55788183
O        0.02922237      -0.82964754      -3.15313983
