34
Properties=species:S:1:pos:R:3 pbc="F F F"
C        0.00000000       0.00000000       0.00000000
H        0.62911803       0.62911803       0.62911803
H       -0.62911803      -0.62911803       0.62911803
H        0.62911803      -0.62911803      -0.62911803
C       -0.87604135       0.88633257      -0.88761693
H       -0.24430817       1.50221372      -1.52769732
N       -1.71793604       1.77909207      -0.07823950
C       -2.97203112       1.59189105      -0.14965124
H       -3.65119362       2.21174479       0.39754093
C       -4.07419300       0.68342870       0.67644346
H       -3.85722351       1.73112679       0.66408867
C       -4.82332754       1.43973112       1.56087708
O       -3.02174449       3.56765223      -0.39075190
O       -2.99949288       3.56572652      -0.41861880
C       -1.47295010       2.34546709      -1.09573650
C       -1.88797700       2.61134267      -0.91163266
N       -4.08920050       3.01146126       0.93945873
O       -3.80778241       4.65328884       0.65432209
O       -3.85240030       4.66623592       0.69097787
C       -2.79347324       4.43437910      -0.17763579
C       -2.79347324       4.43437910      -0.17763579
C       -2.78136635       4.40794563      -0.18756604
O       -1.88806510       2.97811985      -0.80672085
O       -1.88806510       2.97811985      -0.80672085
O       -1.89703846       2.96922064      -0.80047333
N       -1.32434320       3.57973289      -1.19192088
N       -1.34197211       3.60313034      -1.17987490
N       -1.34766877       3.58939385      -1.16227055
C       -0.53224367       3.83555579      -2.59871864
C       -0.53025222       3.80677128      -2.60222697
C       -0.77774268       3.89437461      -2.30168676
C       -0.75788915       3.89437461      -2.29153824
C       -1.62001455       5.06835842      -1.88848543
C       -2.29346561       4.62791014      -0.18705302
