13
Properties=species:S:1:pos:R:3 pbc="F F F"
C        0.00000000       0.00000000       0.00000000
H        0.62911803       0.62911803       0.62911803
H       -0.62911803      -0.62911803       0.62911803
H        0.62911803      -0.62911803      -0.62911803
C       -0.90309423       0.89791858      -0.88355011
C       -1.79842234       1.79583716       0.00786871
H       -1.15793014       2.42727685       0.62362272
H       -2.42453003       1.17995608       0.65345275
H       -2.44427848       2.42727685      -0.60225689
C       -0.03850430       1.77266502      -1.75956416
N        0.64972448       2.49929857      -2.36557078
C       -1.71806514       0.08856118      -1.80097079
N       -2.35004783      -0.52780610      -2.53798389
