21
Properties=species:S:1:pos:R:3 pbc="F F F"
C        0.00000000       0.00000000       0.00000000
H        0.62911803       0.62911803       0.62911803
H       -0.62911803      -0.62911803       0.62911803
H        0.62911803      -0.62911803      -0.62911803
C       -0.91412783       0.87579399      -0.89434499
C       -1.84376776       0.00000000      -1.77255464
H       -2.49588156      -0.58420897      -1.12328827
H       -1.24665809      -0.67412466      -2.42148852
O       -2.71340609       0.77632242      -2.56574488
C       -2.04543781       1.54276156      -3.57137275
H       -1.61595297       0.85339129      -4.32795095
H       -2.80557561       2.14289737      -4.07149935
C       -0.10446954       1.69616306      -1.83856201
N        1.10977173       1.83953404      -1.49510658
O        1.83614492       2.59525394      -2.43816948
H        2.72351146       2.58681273      -2.04649520
C       -0.92580712       2.36313057      -3.02959824
H       -1.20154142       3.33537507      -2.67801523
H       -1.54374576       1.50723362      -0.26747614
C       -0.93792450       2.00605941      -4.41424656
H       -1.15932322       2.68018413      -5.26784945
