34
Properties=species:S:1:pos:R:3 pbc="F F F"
C        0.00000000       0.00000000       0.00000000
H        0.62911803       0.62911803       0.62911803
H       -0.62911803      -0.62911803       0.62911803
H        0.62911803      -0.62911803      -0.62911803
C       -0.87604135       0.88633257      -0.88761693
H       -0.24048173       1.52935827      -1.53157437
C       -1.64930737       0.05574083      -1.82200170
N       -2.22829103      -0.59404194      -2.57370615
N       -1.80408025       1.69568992      -0.08475810
C       -2.68282247       2.53758216      -0.94448328
H       -2.11319780       3.19625711      -1.63279593
H       -3.34052920       1.89455652      -1.56580377
O       -3.48928118       3.34557271      -0.08327848
C       -4.50219250       4.02617455      -0.82872438
H       -4.04649305       4.71554470      -1.56980848
H       -5.10759115       3.29233885      -1.40063071
C       -5.35236740       4.77038431       0.11162251
C       -6.05481625       5.36271477       0.83592200
H       -7.12173319       6.27905464       1.97526646
H       -6.65782118       5.86897993       1.45303631
O       -6.46871042       5.63609791       1.09602427
N       -6.62816238       5.41334152       0.58565319
C       -5.90230370       5.77142477       1.81969869
C       -5.75357771       5.74172211       1.99322653
N       -4.89273214       5.65327978       2.93634772
N       -5.34460449       5.77986622       2.61329794
C       -6.09274912       6.38816786       2.84692168
C       -6.07071686       6.40899944       2.76506591
O       -5.04066372       5.96672535       3.30708933
O       -5.14226437       5.78265095       2.86196208
H       -6.28097963       5.98766947       1.84679365
C       -7.48463154       5.50543404      -0.22296345
C       -7.48463154       5.50543404      -0.22296345
C       -7.48463154       5.50543404      -0.22296345
