34
Properties=species:S:1:pos:R:3 pbc="F F F"
C        0.00000000       0.00000000       0.00000000
H        0.62911803       0.62911803       0.62911803
H       -0.62911803      -0.62911803       0.62911803
H        0.62911803      -0.62911803      -0.62911803
C       -0.88749290       0.89791858      -0.89921981
C       -0.02290297       1.77266502      -1.77523386
N        0.61265665       2.41569066      -2.41919136
H        0.61351877       2.37724543      -1.16339314
N       -2.16483736       0.11260879      -1.58782458
H       -1.29258466       0.54920554      -0.80612284
C       -0.03633952       1.58360469      -0.89973891
C       -1.65225840       0.05099094      -0.56166035
N       -2.79817343      -0.52312225      -0.70784950
C       -0.23671353       0.18321969       0.35203838
O        0.83462888       2.49392915      -2.45384693
N        2.35154867       3.03658319      -2.70159340
O        2.31432366       3.02326655      -2.69551373
N        3.55205584       3.46604562      -2.89766264
N        3.57066822       3.47270393      -2.90070248
N       -0.54226744       0.07005872      -1.73733544
N       -1.49322414       0.98278344      -1.84979975
N       -1.47921681       0.97010523      -1.85526359
O       -0.79469591       1.16743207      -0.64068002
O       -2.59657383       0.80987704      -0.06320384
O       -2.59913468       0.79117817      -0.04046291
O       -2.46398044       1.67165732      -1.06752062
O       -2.81969404       0.17019111       0.71263039
O       -2.73906040       0.18433791       0.74258637
O       -2.72693014       0.10244763       0.67398691
C       -2.38109756      -1.36279476      -0.04875898
O       -3.43600988       0.98845136       1.28742135
O       -3.47719002       0.89803612       1.39526892
C       -2.66502309      -0.99453413      -0.11042172
C       -2.02593374       0.00914505       0.72305024
