34
Properties=species:S:1:pos:R:3 pbc="F F F"
C        0.00000000       0.00000000       0.00000000
H        0.62911803       0.62911803       0.62911803
H       -0.62911803      -0.62911803       0.62911803
H        0.62911803      -0.62911803      -0.62911803
C       -0.87604135       0.88633257      -0.88761693
H       -0.24096203       1.51777220      -1.50895226
N       -1.72900939       1.75863171      -0.06759387
C       -2.98289204       1.59332073      -0.18313232
H       -3.68925500       2.17752981       0.40665630
N       -3.56822371       0.66115111      -1.06435013
C       -2.66382980       0.02814376      -1.80615330
N       -1.41673398       0.10424299      -1.76794481
O       -3.11395669      -0.89285249      -3.07345319
C       -3.43036366      -2.11833930      -2.73556709
H       -3.60756254      -2.14783716      -1.61993742
H       -4.57087994       0.58212680      -1.15673935
O       -3.50909829      -3.08530855      -3.42467546
C       -3.49250078      -1.16847098      -2.88203144
O       -2.50417423      -0.51538897      -3.39271069
C       -4.78138065      -2.02405882      -2.20169687
C       -5.96440983      -3.21226501      -1.77566338
C       -4.79738998      -2.00838804      -2.16376972
C       -4.17338753       0.38570449      -1.95142019
C       -4.17338753       0.38570449      -1.95142019
C       -4.17338753       0.38570449      -1.95142019
C       -4.17191839       0.40119854      -1.95435727
N       -3.94962382      -1.83553171      -0.76589203
N       -4.81244516      -2.11040354      -2.16906071
O       -4.79738998      -0.85230803      -1.88167393
O       -4.87291670      -0.93803263      -1.80946171
O       -4.25580215      -0.43609285      -2.01057839
O       -4.01438951       1.85867023      -2.24329257
O       -4.01438951       1.85867023      -2.24329257
O       -4.01438951       1.85867023      -2.24329257
