34
Properties=species:S:1:pos:R:3 pbc="F F F"
C        0.00000000       0.00000000       0.00000000
H        0.62911803       0.62911803       0.62911803
H       -0.62911803      -0.62911803       0.62911803
H        0.62911803      -0.62911803      -0.62911803
C       -0.90309423       0.89791858      -0.88355011
C       -1.80936098       1.77371264       0.01875967
H       -2.46417689       1.11503768       0.62659407
H       -2.47510338       2.40089417      -0.61015189
C       -1.77729368       0.02561951      -1.68090045
N       -2.47912359      -0.62899226      -2.27740502
O       -0.98083442       2.59052896       0.81528533
C       -1.75737000       3.45899582       1.64453566
H       -2.42311239       4.08617735       1.01562405
H       -2.40246868       2.84784842       2.30970144
C       -0.05865306       1.78425121      -1.80128193
H       -0.65480638       2.41143274      -2.49651122
H        0.58720309       1.15281153      -2.41140747
O        0.77314007       2.62094641      -1.02916813
H        0.22814065       3.02215147      -0.33425105
H       -1.06704211       4.07487679       2.22093582
C       -2.37247491       3.06114006       1.29891038
H       -1.56158900       1.38814235      -1.50561512
C       -2.11442137      -0.30243713      -0.09937561
H       -2.56633759       0.20960546      -0.73063135
H       -2.32472181       2.29285622      -1.41923356
H       -2.47203875       2.60614681      -0.49173886
C       -2.55203462       3.86722803      -0.14623496
C       -1.78796363       3.56083298      -1.23518610
C       -1.97454572       3.78400517      -0.85786575
C       -2.22820163       3.74269962      -1.17824435
C       -2.27494574       3.88401794      -0.28126633
C       -2.36403179       3.76736546       0.18826431
O       -3.39823055       4.00529289      -1.34240794
O       -1.73295832       3.60125613       0.87735093
