34
Properties=species:S:1:pos:R:3 pbc="F F F"
C        0.00000000       0.00000000       0.00000000
H        0.62911803       0.62911803       0.62911803
H       -0.62911803      -0.62911803       0.62911803
H        0.62911803      -0.62911803      -0.62911803
C       -0.87604135       0.88633257      -0.88761693
H       -0.25193328       1.51777220      -1.51997161
N       -1.75422525       1.73790693      -0.07244080
C       -2.99008012       1.50710273      -0.25213712
H       -3.76710224       2.02588320       0.30929190
N       -3.39023328       0.58815539      -1.21521115
H       -4.11402512      -0.06627941      -0.95455855
C       -1.77437735       0.01053858      -1.79782295
O       -1.47173381      -0.73194438      -2.64989400
C       -2.15753865      -0.06023282      -1.79843879
O       -5.27384663       0.26575366       0.20019895
O       -5.52429581       0.09142865      -0.11267859
O       -5.52429581       0.09142865      -0.11267859
C       -3.68873596       0.44676030       0.14998573
C       -4.07437944       2.33665109      -1.34391737
C       -4.10326529       2.33665109      -1.33828664
O       -2.27701902       0.35785282      -0.14811158
O       -2.29774046       0.38550377      -0.16870171
C       -2.87195492       1.31783581      -0.88782150
C       -2.89091277       1.31566608      -0.91156322
N       -1.96226680      -1.24978507       0.17643172
N       -3.64440751       1.16281438      -0.25001037
N       -2.15749860      -1.28815174       0.10738966
C       -1.90955925       1.22390652       0.07174850
C       -1.94881058       1.27277935       0.00810814
C       -2.66056800       1.98930812      -1.24572003
O       -3.81756806       1.17542064      -2.03046393
O       -3.81900501       1.20125544      -2.03220034
H       -3.63498092       1.26781261      -1.74676740
H       -3.64989662       1.26781261      -1.73328185
