18
Properties=species:S:1:pos:R:3 pbc="F F F"
C        0.00000000       0.00000000       0.00000000
H        0.62911803       0.62911803       0.62911803
H       -0.62911803      -0.62911803       0.62911803
H        0.62911803      -0.62911803      -0.62911803
C       -0.89144140       0.88633257      -0.87214947
H       -1.53193367       1.51777220      -0.25639546
C       -1.76748276       0.00000000      -1.75976634
O       -1.43380928      -0.30213723      -2.88291979
C       -3.05983639      -0.50270402      -1.16209674
H       -3.41055870      -1.42036533      -1.63431597
O       -3.20958471      -0.44050124       0.25867915
O       -0.08290911       1.73489571      -1.69136512
C       -0.04847293       1.51598585      -3.00277328
H        0.62870443       2.22225714      -3.48309731
N       -0.67149693       0.65991569      -3.70411754
C       -4.06547070       0.40220189      -0.53764272
H       -5.11058044       0.09346026      -0.56051052
H       -3.87720966       1.47317398      -0.46230334
