14
Properties=species:S:1:pos:R:3 pbc="F F F"
C        0.00000000       0.00000000       0.00000000
H        0.62911803       0.62911803       0.62911803
H       -0.62911803      -0.62911803       0.62911803
H        0.62911803      -0.62911803      -0.62911803
C       -0.88749290       0.89791858      -0.89921981
C       -0.00770426       1.77266502      -1.75996864
N        0.65872455       2.41114712      -2.41197491
C       -1.70383394       1.77853179      -0.08644313
C       -2.36407685       2.53000736       0.59433776
C       -3.13288260       3.37418127       1.38705850
N       -3.76050520       4.07597256       2.01194072
C       -1.71169531       0.11004055      -1.82703257
C       -2.37665105      -0.53848499      -2.60249853
H       -2.96466970      -1.11197448      -3.28824139
