34
Properties=species:S:1:pos:R:3 pbc="F F F"
C        0.00000000       0.00000000       0.00000000
H        0.62911803       0.62911803       0.62911803
H       -0.62911803      -0.62911803       0.62911803
H        0.62911803      -0.62911803      -0.62911803
C       -0.89144140       0.88633257      -0.87214947
H       -1.52105927       1.51777220      -0.24528062
N       -1.76320112       0.09845454      -1.75542808
C       -1.53260815       0.24182546      -2.99606133
H       -2.09063196      -0.27695507      -3.77553272
N       -0.51848459       1.08599949      -3.43312168
C        0.06995827       1.78563917      -2.28197551
H       -0.11245923       2.85997772      -2.25707960
O        1.47075105       1.50132346      -2.23905802
C        1.66602004       0.69333285      -3.40263844
H        2.70573497       0.74074614      -3.72643471
H        1.36825347      -0.33289605      -3.18749046
C        0.66542339       1.35889697      -4.38158083
H        0.57243419       0.85687894      -5.34461260
C        0.92702603       2.88662577      -4.39188766
H        0.74296159       1.81228721      -4.39591503
O        0.97559643       2.99974370      -4.39924288
O        0.36667573       1.53037179      -4.30539751
O        0.59978300       2.08394456      -4.31762695
O        1.48856807       4.26133204      -4.51416063
N        0.45696673       1.75180089      -4.32773495
O       -0.22606242       0.45670944      -4.14618874
O       -0.27037293       0.50606090      -4.13448858
O       -0.31213284       0.55773705      -4.12346220
C        0.62402976      -0.54776853      -4.41303062
C        0.62402976      -0.54776853      -4.41303062
C        0.62402976      -0.54776853      -4.41303062
C       -1.11562681       1.48515058      -3.92705750
N       -1.21684813       1.71420383      -3.97545695
N       -1.23505783       1.69651556      -3.95407844
