34
Properties=species:S:1:pos:R:3 pbc="F F F"
C        0.00000000       0.00000000       0.00000000
H        0.62911803       0.62911803       0.62911803
H       -0.62911803      -0.62911803       0.62911803
H        0.62911803      -0.62911803      -0.62911803
C       -0.87604135       0.88633257      -0.88761693
H       -0.25974739       1.53313947      -1.51205420
N       -1.81670654       1.70670164      -0.07383484
C       -3.03767729       1.40637720      -0.36216539
H       -3.85616398       1.84894347       0.16614699
N       -1.65822685       2.66138768       0.92394108
N       -2.76660204       3.04225755       1.41316628
C       -3.08517265       0.41549289      -1.44696498
H       -3.98818660      -0.00053462      -1.89371562
N       -1.94288206       0.05576643      -1.86965632
N       -3.87557530       2.45398474       0.86452091
N       -3.62560964       3.03156519       1.54922342
H       -0.65246451       2.26521683       0.42635724
H       -0.61015272       2.32432127       0.47224885
C       -0.79319179       1.12694740      -0.20660183
C        0.35449660       3.63199759       1.46464205
C       -0.02988964       3.63503456       1.28011179
C       -1.35715938       1.52316141      -0.20908993
C       -1.31372404       1.47148514      -0.19239897
C       -1.63184857       2.26618075      -0.65839493
C       -1.62894058       2.25542593      -0.66759038
O       -0.13821667       2.14117074      -1.36040246
O       -1.37905681       1.07602704      -1.50870538
O       -1.36437488       1.07602704      -1.50420332
O       -1.34977376       1.07602704      -1.49944496
C       -0.08590972       0.97353017      -1.23752022
C       -0.08165491       0.92814052      -1.28316569
C       -2.54489374       0.97353017      -2.06274462
C       -2.32101488       1.15661621      -1.87735820
C       -2.32856846       1.13873279      -1.86099184
