21
Properties=species:S:1:pos:R:3 pbc="F F F"
C        0.00000000       0.00000000       0.00000000
H        0.62911803       0.62911803       0.62911803
H       -0.62911803      -0.62911803       0.62911803
H        0.62911803      -0.62911803      -0.62911803
C       -0.87604135       0.88633257      -0.88761693
H       -0.24096203       1.51777220      -1.50895226
N       -1.72900939       1.75863171      -0.06759387
C       -2.98556709       1.61526084      -0.18337882
H       -3.69193006       2.19946980       0.40640980
N       -3.51564193       0.69178361      -1.04541636
H       -2.81263781       0.22661093      -1.60174298
C       -4.82558060       0.34470037      -1.35475659
H       -4.84671545      -0.39003709      -2.15962505
N       -5.88658714       0.76084614      -0.84134966
C       -5.84910345       1.73824906       0.22905988
H       -5.59593201       2.75475311      -0.13798615
H       -5.09756088       1.47983027       1.00398088
C       -7.19656515       1.72510850       0.91043514
O       -7.67194796       2.64331269       1.53893435
H       -7.70381260       0.74208379       0.81844866
O       -1.62253952       0.06704140      -1.82249689
