34
Properties=species:S:1:pos:R:3 pbc="F F F"
C        0.00000000       0.00000000       0.00000000
H        0.62911803       0.62911803       0.62911803
H       -0.62911803      -0.62911803       0.62911803
H        0.62911803      -0.62911803      -0.62911803
C       -0.90309423       0.89791858      -0.88355011
C       -1.79087722       1.80582166      -0.03005672
H       -1.19118702       2.45262861       0.61034304
H       -2.45775938       1.20568585       0.58897823
N       -2.60053539       2.62619066      -0.97427374
H       -2.20410419       3.55111790      -1.06059468
C       -2.56613708       1.91703212      -2.28423905
H       -2.21992993       2.57901049      -3.07798004
H       -3.54974270       1.57842517      -2.53476834
C       -1.27925289       2.46449924      -3.30262280
C       -0.16504693       3.42274642      -3.64961767
H       -0.93589610       2.60448337      -3.32537079
O        0.43611747       3.31836200      -3.42761397
O       -1.99442470       2.18303919      -3.25561690
N       -2.59889221       2.20637894      -3.33264709
N       -2.18943906       2.16170430      -3.28696489
C       -0.99238646       1.54185009      -3.53221822
C       -0.94372427       1.58803129      -3.50006557
C       -0.89084911       1.63541317      -3.44138789
O        0.00216520       2.44675589      -2.89025998
O       -0.28031409       2.22453737      -2.78940725
O       -0.28741479       2.23999357      -2.79698992
O       -0.46045291       1.97463632      -2.87236524
O       -0.45811266       1.99926114      -2.88961458
C       -1.27917504       0.88404715      -3.00899911
C       -1.23815918       0.85584736      -3.01701355
C       -1.17603266       0.81615520      -3.01980519
H       -2.08480692       1.24050784      -3.00589943
H       -2.08881664       1.27864397      -3.00584674
O        0.16844201      -0.01455188      -3.24674249
