20
Properties=species:S:1:pos:R:3 pbc="F F F"
C        0.00000000       0.00000000       0.00000000
H        0.62911803       0.62911803       0.62911803
H       -0.62911803      -0.62911803       0.62911803
H        0.62911803      -0.62911803      -0.62911803
C       -0.89144140       0.88633257      -0.87214947
H       -1.51317620       1.53313947      -0.25312936
C       -1.82108140       0.01053858      -1.75035906
O       -2.74286890      -0.60968614      -1.32406354
O       -1.45465136      -0.07286617      -3.06780767
C       -0.45439112       0.85370970      -3.49889350
H       -0.94391644       1.74427629      -3.94538569
H        0.14123267       0.36860624      -4.27220201
O        0.40685230       1.20578694      -2.43946004
C       -0.25743294       1.93987131      -1.38005292
C       -0.88181758       3.25192213      -1.79086196
H       -1.17005312       3.82002711      -0.90639818
H       -0.15726566       3.84685040      -2.38515472
O       -2.05894709       3.07099128      -2.50761080
C       -1.86753011       2.45695472      -3.78480172
H       -1.91602957       3.20559359      -4.57555246
