16
Properties=species:S:1:pos:R:3 pbc="F F F"
C        0.00000000       0.00000000       0.00000000
H        0.62911803       0.62911803       0.62911803
H       -0.62911803      -0.62911803       0.62911803
H        0.62911803      -0.62911803      -0.62911803
C       -0.88749290       0.89791858      -0.89921981
C       -0.00074834       1.76241207      -1.79768121
H        0.58594400       1.17820311      -2.50661802
C       -0.21983854       3.19635868      -2.03578663
H       -1.09830678       3.66440058      -1.59156871
H        0.15786828       3.66440058      -2.94483757
O        0.74977237       2.74852395      -1.12507415
C       -1.73232293       0.05793017      -1.72576666
N       -2.40547848      -0.63634878      -2.38435411
C       -1.76708317       1.79583716       0.00773168
O       -1.57814360       1.91148973       1.19728005
H       -2.60089207       2.32413650      -0.49997073
