34
Properties=species:S:1:pos:R:3 pbc="F F F"
C        0.00000000       0.00000000       0.00000000
H        0.62911803       0.62911803       0.62911803
H       -0.62911803      -0.62911803       0.62911803
H        0.62911803      -0.62911803      -0.62911803
C       -0.88674450       0.86449343      -0.89846152
H       -0.27112365       1.49943233      -1.50075948
C       -0.81611156       0.75886691       0.44554466
O        1.03369308      -1.40570188      -1.83466125
N       -1.63089204       0.95786005      -0.61229903
C       -2.95807552       0.99518925      -0.08117872
H       -0.88268954       0.85242546      -0.90414929
O       -1.37646532       2.30096364      -0.20159441
O       -1.35882664       2.32973576      -0.25108188
O       -0.51400870      -0.45506209      -1.48150456
N       -0.63031113       0.09116518      -1.25665855
O       -0.57103729      -0.44903463      -1.47800541
C        0.71997499       0.62538904      -1.06352055
C        0.80244780       0.52846444      -1.08950686
C        0.92647839       0.34774607      -1.13817620
C       -2.59535933       0.81985503      -0.84611332
C       -2.59277129       0.76038969      -0.84619260
C       -2.58139992       0.64190936      -0.84654099
O       -2.47131324      -0.70458317      -0.84672403
O       -2.49683189      -0.70647407      -0.84829181
O       -2.49557877      -0.72643137      -0.85002196
O       -2.45794630      -0.90389919      -0.87555009
C       -3.09776282       0.38785493      -0.75707483
C       -2.55692267      -2.03492546      -0.86337930
C       -3.01275635       0.42754102      -0.73265958
C       -2.49632716      -2.03363657      -0.93553615
O       -2.48337507       1.59817672      -0.93917143
O       -2.44226527       1.59267330      -0.93076134
N       -2.62904787       0.63201451      -0.75642407
O       -3.22810793      -0.08377010       0.53594035
