16
Properties=species:S:1:pos:R:3 pbc="F F F"
C        0.00000000       0.00000000       0.00000000
H        0.62911803       0.62911803       0.62911803
H       -0.62911803      -0.62911803       0.62911803
H        0.62911803      -0.62911803      -0.62911803
C       -0.88749290       0.89791858      -0.89921981
C        0.00000012       1.79583716      -1.79843950
H        0.63173330       1.17995608      -2.43851995
H        0.62173486       2.44264412      -1.17941928
H       -0.61294556       2.42727685      -2.44161987
C       -1.73709369      -0.00998455      -1.79072869
N       -2.94526029      -0.04261498      -1.47171855
C       -1.84918058       1.67450237      -0.06725097
C       -2.55678391       2.28430319       0.63726270
H       -3.20798850       2.85779285       1.26331520
H       -3.50610805      -0.64194989      -2.06023121
O       -1.18289173      -0.66325349      -2.80807734
