34
Properties=species:S:1:pos:R:3 pbc="F F F"
C        0.00000000       0.00000000       0.00000000
H        0.62911803       0.62911803       0.62911803
H       -0.62911803      -0.62911803       0.62911803
H        0.62911803      -0.62911803      -0.62911803
C       -0.87604135       0.88633257      -0.88761693
H       -0.25193328       1.51777220      -1.51997161
N       -1.75318980       0.07697517      -1.74578285
C       -2.99674273       0.22034609      -1.53149414
H       -3.72428751      -0.35314345      -2.06692624
C       -3.27195215       1.16129577      -0.57453448
N       -2.12132359       0.08368134      -0.16016904
H       -2.58071280       2.02826405      -0.62604600
H       -2.27845955      -0.48117530       0.82914615
H       -1.83416307       0.41992718      -1.06823123
H       -1.57978535      -0.44373220      -2.77907562
H       -1.56010103      -0.42541838      -2.78463626
C       -0.71940285       0.59876943      -2.66989970
C       -0.56496930       0.30685741      -3.27696085
C       -2.18820643      -1.00058699      -2.60697269
C       -0.60800433       0.48457742      -3.08114576
C       -2.09223127      -1.33497930      -4.14552164
C       -0.30621922      -0.57782054      -2.30813599
N       -2.21189880      -0.98314303      -2.60027838
N       -2.87891889      -0.50901210      -2.41160035
O       -3.23675203      -0.19392002      -2.29092193
O       -3.24974632      -0.21267086      -2.28699970
O       -0.91911256      -2.04514551      -2.95376229
O       -0.93713689      -2.06831026      -2.94883394
O       -3.22344732      -0.17540812      -2.29493809
C       -4.20156527      -1.18003190      -1.99968886
C       -2.63349390       0.95546186      -2.46727276
C       -4.15777922      -1.01682305      -1.99522233
C       -2.63349390       0.95546186      -2.46727276
C       -4.18448925      -0.98265886      -1.98664677
