18
Properties=species:S:1:pos:R:3 pbc="F F F"
C        0.00000000       0.00000000       0.00000000
H        0.62911803       0.62911803       0.62911803
H       -0.62911803      -0.62911803       0.62911803
H        0.62911803      -0.62911803      -0.62911803
C       -0.89144140       0.88633257      -0.87214947
H       -1.53261197       1.52935827      -0.23377848
C       -1.84251857       0.05574083      -1.62478995
N       -2.60670877      -0.59404194      -2.18719101
N       -0.09843200       1.70670164      -1.83039188
C       -1.01272738       2.46243763      -2.66431332
H       -1.61187243       3.21107650      -2.14598489
N       -1.08841455       2.27818465      -3.89833975
C        0.72169918       2.71633387      -1.14561033
H        1.09991717       3.43556404      -1.90175724
H        1.60730350       2.26549530      -0.69778371
H       -1.76635611       2.89157748      -4.32757664
O        0.03504336       3.39693570      -0.09195805
H        0.68867093       3.90249705       0.41605592
