16
Properties=species:S:1:pos:R:3 pbc="F F F"
C        0.00000000       0.00000000       0.00000000
H        0.62911803       0.62911803       0.62911803
H       -0.62911803      -0.62911803       0.62911803
H        0.62911803      -0.62911803      -0.62911803
C       -0.87604135       0.88633257      -0.88761693
H       -0.24096203       1.51777220      -1.50895226
N       -1.75502837       1.77049971      -0.07169521
C       -2.98966646       1.51799548      -0.22920315
H       -3.77125192       2.02725697       0.29489237
C       -3.17753506       0.43950081      -1.23997140
N       -4.15258455      -0.22370654      -1.81052673
N       -1.91803133       0.09741157      -1.65653288
C       -3.49736834      -1.07455087      -2.66120529
H       -4.03565884      -1.75357378      -3.28895545
C       -2.15965271      -0.87762266      -2.58810449
H       -1.33060884      -1.32846117      -3.13356781
