18
Properties=species:S:1:pos:R:3 pbc="F F F"
C        1.38166153       0.00000000       0.00000000
C        0.69092011       1.19713211       0.00000000
C       -0.69092011       1.19713211       0.00000000
C       -1.38166153       0.00000000       0.00000000
C       -0.69092011      -1.19713211       0.00000000
C        0.69092011      -1.19713211       0.00000000
H        2.47404242       0.00000000       0.00000000
H        1.23700202       2.14272499       0.00000000
H       -1.23700202       2.14272499       0.00000000
H       -2.47404242       0.00000000       0.00000000
H       -1.23700202      -2.14272499       0.00000000
C        1.45806193      -2.54393911       0.01007043
H        2.49491239      -2.38916659      -0.04897060
C        0.80416739      -3.85746717       0.09931245
H        1.46985698      -4.72053194       0.10805109
H       -0.20607102      -3.99934816       0.48322320
C        0.86207390      -3.39713192      -1.08398521
H        0.05069727      -3.05422783      -1.61782420
