18
Properties=species:S:1:pos:R:3 pbc="F F F"
C        1.38166153       0.00000000       0.00000000
C        0.69092011       1.19713211       0.00000000
C       -0.69092011       1.19713211       0.00000000
C       -1.38166153       0.00000000       0.00000000
C       -0.69092011      -1.19713211       0.00000000
C        0.69092011      -1.19713211       0.00000000
H        2.47404242       0.00000000       0.00000000
H        1.23700202       2.14272499       0.00000000
H       -1.23700202       2.14272499       0.00000000
H       -2.47404242       0.00000000       0.00000000
H       -1.23700202      -2.14272499       0.00000000
C        1.45812070      -2.54393911      -0.00335691
H        2.49616385      -2.38916659       0.02844664
C        0.79817080      -3.85746717      -0.00624450
H        1.46314669      -4.72053194       0.02578568
H       -0.22831655      -4.01813555       0.32331359
C        0.94846189      -3.35325599      -1.17183971
H        0.15160125      -2.99350023      -1.71634722
