18
Properties=species:S:1:pos:R:3 pbc="F F F"
C        1.38166153       0.00000000       0.00000000
C        0.69092011       1.19713211       0.00000000
C       -0.69092011       1.19713211       0.00000000
C       -1.38166153       0.00000000       0.00000000
C       -0.69092011      -1.19713211       0.00000000
C        0.69092011      -1.19713211       0.00000000
H        2.47404242       0.00000000       0.00000000
H        1.23700202       2.14272499       0.00000000
H       -1.23700202       2.14272499       0.00000000
H       -2.47404242       0.00000000       0.00000000
H       -1.23700202      -2.14272499       0.00000000
C        1.45794439      -2.54393911      -0.01678312
H        2.47707462      -2.40726471       0.19580370
C        0.81026351      -3.83370352      -0.29591650
H        1.46083283      -4.70822382      -0.28737634
H       -0.14480489      -3.93788648      -0.81078511
C        0.71763283      -3.46099138       0.92717224
H       -0.14909905      -3.11808729       1.36545539
