21
Properties=species:S:1:pos:R:3 pbc="F F F"
C        1.38166153       0.00000000       0.00000000
C        0.69092011       1.19713211       0.00000000
C       -0.69092011       1.19713211       0.00000000
C       -1.38166153       0.00000000       0.00000000
C       -0.69092011      -1.19713211       0.00000000
C        0.69092011      -1.19713211       0.00000000
H        2.47404242       0.00000000       0.00000000
H        1.23700202       2.14272499       0.00000000
H       -1.23700202       2.14272499       0.00000000
H       -2.47404242       0.00000000       0.00000000
H       -1.23700202      -2.14272499       0.00000000
C        1.45812070      -2.54393911      -0.00335691
H        2.51642227      -2.38621855      -0.00798754
C        0.93526775      -3.71735191       0.89920861
H        1.76224971      -4.27238512       1.43300474
O       -0.14166802      -3.61172533       1.70639563
H       -0.10328793      -2.78767729       2.25372696
C        0.96826410      -3.50939226      -1.02709448
H        1.68309546      -4.01141024      -1.67908633
H        0.05691886      -3.20065069      -1.53917623
O        0.59933281      -4.44635105      -0.06892103
