18
Properties=species:S:1:pos:R:3 pbc="F F F"
C        1.38166153       0.00000000       0.00000000
C        0.69092011       1.19713211       0.00000000
C       -0.69092011       1.19713211       0.00000000
C       -1.38166153       0.00000000       0.00000000
C       -0.69092011      -1.19713211       0.00000000
C        0.69092011      -1.19713211       0.00000000
H        2.47404242       0.00000000       0.00000000
H        1.23700202       2.14272499       0.00000000
H       -1.23700202       2.14272499       0.00000000
H       -2.47404242       0.00000000       0.00000000
H       -1.23700202      -2.14272499       0.00000000
C        1.45812070      -2.54393911      -0.00335691
H        2.49616385      -2.38916659       0.02844664
C        0.79832244      -3.85746717      -0.01779380
H        1.46375704      -4.72053194       0.00259377
H       -0.22816491      -4.01813555       0.31176430
C        0.94290781      -3.33094692      -1.18457329
H        0.15133744      -2.95444846      -1.72546589
