21
Properties=species:S:1:pos:R:3 pbc="F F F"
C        1.38166153       0.00000000       0.00000000
C        0.69092011       1.19713211       0.00000000
C       -0.69092011       1.19713211       0.00000000
C       -1.38166153       0.00000000       0.00000000
C       -0.69092011      -1.19713211       0.00000000
C        0.69092011      -1.19713211       0.00000000
H        2.47404242       0.00000000       0.00000000
H        1.23700202       2.14272499       0.00000000
H       -1.23700202       2.14272499       0.00000000
H       -2.47404242       0.00000000       0.00000000
H       -1.23700202      -2.14272499       0.00000000
C        1.45812070      -2.54393911      -0.00335691
H        2.51277733      -2.38621855       0.08452348
C        0.99956369      -3.66131401      -1.00640047
H        1.85731149      -4.19913244      -1.50831604
O       -0.03756189      -3.50891185      -1.85707247
H        0.06006570      -2.67543960      -2.38232708
C        0.91527075      -3.56730771       0.93372810
H        1.59290266      -4.11913681       1.58518720
H       -0.01814497      -3.29513454       1.42643118
O        0.58230686      -4.41148186      -0.11917436
