21
Properties=species:S:1:pos:R:3 pbc="F F F"
C        1.38166153       0.00000000       0.00000000
C        0.69092011       1.19713211       0.00000000
C       -0.69092011       1.19713211       0.00000000
C       -1.38166153       0.00000000       0.00000000
C       -0.69092011      -1.19713211       0.00000000
C        0.69092011      -1.19713211       0.00000000
H        2.47404242       0.00000000       0.00000000
H        1.23700202       2.14272499       0.00000000
H       -1.23700202       2.14272499       0.00000000
H       -2.47404242       0.00000000       0.00000000
H       -1.23700202      -2.14272499       0.00000000
C        1.45812070      -2.54393911      -0.00335691
H        2.51593590      -2.38621855       0.02905242
C        0.94944614      -3.69902062      -0.93713129
H        1.78106761      -4.25405359      -1.46367025
O       -0.11876160      -3.56998682      -1.75247240
H       -0.05647759      -2.74593878      -2.29760122
C        0.94009215      -3.54830480       0.96772170
H        1.65097976      -4.10013390       1.58271992
H        0.03326297      -3.23956323       1.48775887
O        0.54533470      -4.43039989      -0.03136444
