18
Properties=species:S:1:pos:R:3 pbc="F F F"
C        1.38166153       0.00000000       0.00000000
C        0.69092011       1.19713211       0.00000000
C       -0.69092011       1.19713211       0.00000000
C       -1.38166153       0.00000000       0.00000000
C       -0.69092011      -1.19713211       0.00000000
C        0.69092011      -1.19713211       0.00000000
H        2.47404242       0.00000000       0.00000000
H        1.23700202       2.14272499       0.00000000
H       -1.23700202       2.14272499       0.00000000
H       -2.47404242       0.00000000       0.00000000
H       -1.23700202      -2.14272499       0.00000000
C        1.45812070      -2.54393911      -0.00335691
H        2.49616385      -2.38916659       0.02844664
C        0.81662017      -3.82172489      -0.02863169
H        1.38850713      -4.74948406      -0.01111023
H       -0.26977795      -3.90700865      -0.05240292
C        1.07374811      -3.35325599      -1.21882463
H        1.86095738      -3.71301174      -1.77719450
