21
Properties=species:S:1:pos:R:3 pbc="F F F"
C        1.38166153       0.00000000       0.00000000
C        0.69092011       1.19713211       0.00000000
C       -0.69092011       1.19713211       0.00000000
C       -1.38166153       0.00000000       0.00000000
C       -0.69092011      -1.19713211       0.00000000
C        0.69092011      -1.19713211       0.00000000
H        2.47404242       0.00000000       0.00000000
H        1.23700202       2.14272499       0.00000000
H       -1.23700202       2.14272499       0.00000000
H       -2.47404242       0.00000000       0.00000000
H       -1.23700202      -2.14272499       0.00000000
C        1.45812070      -2.54393911      -0.00335691
H        2.51634121      -2.38621855       0.01053457
C        0.93318212      -3.69902062      -0.92808598
H        1.76480365      -4.25405359      -1.45462489
O       -0.12059271      -3.56998682      -1.76199698
H       -0.05994615      -2.73651457      -2.29279423
C        0.96678460      -3.52899790       1.00080752
H        1.68067837      -4.04777861       1.64059019
H        0.05995542      -3.22025633       1.52084470
O        0.57772839      -4.42965555       0.01615047
