21
Properties=species:S:1:pos:R:3 pbc="F F F"
C        1.38166153       0.00000000       0.00000000
C        0.69092011       1.19713211       0.00000000
C       -0.69092011       1.19713211       0.00000000
C       -1.38166153       0.00000000       0.00000000
C       -0.69092011      -1.19713211       0.00000000
C        0.69092011      -1.19713211       0.00000000
H        2.47404242       0.00000000       0.00000000
H        1.23700202       2.14272499       0.00000000
H       -1.23700202       2.14272499       0.00000000
H       -2.47404242       0.00000000       0.00000000
H       -1.23700202      -2.14272499       0.00000000
C        1.45806193      -2.54393911       0.01007043
H        2.51004839      -2.38621855      -0.10546434
C        1.03657639      -3.64195013       1.05007982
H        1.91527200      -4.16239071       1.53374779
O        0.03765291      -3.48954797       1.94530272
H        0.12557310      -2.63798761       2.44250917
C        0.90021569      -3.58600044      -0.89713049
H        1.57212067      -4.13782930      -1.55449462
O       -0.38979226      -3.33338785      -1.34897625
H       -0.75965732      -4.24556398      -1.65234733
