21
Properties=species:S:1:pos:R:3 pbc="F F F"
C        1.38166153       0.00000000       0.00000000
C        0.69092011       1.19713211       0.00000000
C       -0.69092011       1.19713211       0.00000000
C       -1.38166153       0.00000000       0.00000000
C       -0.69092011      -1.19713211       0.00000000
C        0.69092011      -1.19713211       0.00000000
H        2.47404242       0.00000000       0.00000000
H        1.23700202       2.14272499       0.00000000
H       -1.23700202       2.14272499       0.00000000
H       -2.47404242       0.00000000       0.00000000
H       -1.23700202      -2.14272499       0.00000000
C        1.45806193      -2.54393911       0.01007043
H        2.51344728      -2.38621855      -0.06857747
C        0.99905598      -3.68033934       0.99129695
H        1.86116314      -4.21815777       1.48568738
O       -0.03246582      -3.55130553       1.85258186
H        0.05134026      -2.71783328       2.38021827
C        0.92343295      -3.56730771      -0.93172914
H        1.61793208      -4.11913681      -1.56517601
H       -0.00132513      -3.27680635      -1.43025780
O        0.58587223      -4.43057299       0.10409123
