20
Properties=species:S:1:pos:R:3 pbc="F F F"
C        0.00000000       0.00000000       0.00000000
H       -0.68818814      -0.12530847      -0.86185503
H       -0.13577580      -0.78999132       0.76783973
O        1.39311218      -0.11658037      -0.51550496
O       -0.15164933       1.46290970       0.65497720
C        0.29960811       2.50497103       1.61963916
H       -0.18409404       2.36048651       2.60820150
C        1.96919549       1.07382345      -0.15778288
O        3.19319344       1.28285766      -0.42430237
H       -0.04945728       3.48799562       1.24027789
C        1.81645977       2.30581689       1.63955116
H        2.38840246       3.08211780       2.18940353
O        2.04391670       1.04590225       2.23029375
C        1.78494895       0.95519197       3.69480896
H        1.61114991       0.88761586       4.78903294
H        0.68753994       1.00347531       3.53524303
C        0.52753186       0.99304324       4.41589689
C        0.41459656       0.95780951       5.21721077
O       -0.42628068       1.52591455       4.81936502
H        0.03609601       1.16035402       4.46049881
