28
Properties=species:S:1:pos:R:3 pbc="F F F"
C        0.00000000       0.00000000       0.00000000
H        0.57818180      -0.61114752      -0.72408813
H        0.60156655       0.81665015       0.45088744
O       -1.11103141       0.63980025      -0.75918543
O       -0.65782201      -0.93267673       1.13555348
C       -1.58104205      -2.02890062       1.54305315
H       -1.06769609      -3.01192522       1.49575114
C       -2.24251795       0.09494412      -0.21167415
O       -3.38021541       0.41206336      -0.67855597
H       -1.84736717      -1.86528397       2.60813522
C       -2.74151278      -1.88266218       0.55673695
H       -3.63095021      -2.50984383       0.77501106
O       -2.23371983      -2.16300154      -0.72843003
C       -1.89788187      -3.59012413      -0.99419743
H       -1.49804235      -3.90453076      -0.00759923
C       -0.80039227      -3.47354364      -1.99520874
H       -0.28758603      -4.39120483      -2.28335261
C       -0.21394074      -2.20280313      -2.16664648
H        0.76380402      -2.05831861      -2.67185807
H       -0.58473456      -1.30459273      -1.55164313
H       -3.01816273      -0.82838881       0.56521291
H       -3.22043538       1.13241482      -1.39721012
C       -3.15387988      -4.42087984      -1.36136448
H       -3.01606107      -4.77214479      -2.40526009
H       -3.23294353      -5.32284260      -0.71925002
O       -4.28305626      -3.58418465      -1.24734354
H       -5.17964458      -4.05856848      -1.42619598
N       -2.04746366      -0.76137632       0.89139766
