20
Properties=species:S:1:pos:R:3 pbc="F F F"
C        0.00000000       0.00000000       0.00000000
H       -0.63981926       0.80344242      -0.42096412
H       -0.33694166      -1.00859010      -0.31830108
O       -0.15603150       0.06481268       1.48038888
O        1.43427408       0.21962945      -0.33870193
C        1.13414049       0.26675388       1.89460397
C        2.12466478       0.37551007       0.92551589
N        1.49377191       0.37551007       3.23286247
H        2.48928881       0.52438647       3.31581497
C        0.70917809       1.19587910       4.19800758
H       -0.36540306       0.91871190       4.17449474
H        1.11463594       0.93746030       5.19846916
O        0.90912235       2.55322623       3.87284708
H        0.49863419       3.07311869       4.58144474
C        3.51831794       0.71308410       1.14062655
H        4.11136532       0.91117591       0.24779207
H        3.79016352       1.35989094       1.97479677
C        3.03017759      -0.69949996       1.35608661
H        3.35410404      -1.46181345       0.64753240
H        2.93980980      -1.04443598       2.38611197
