30
Properties=species:S:1:pos:R:3 pbc="F F F"
C        0.00000000       0.00000000       0.00000000
H       -0.47884434       0.73383576       0.68139011
H        0.21524087      -0.96448791       0.50550342
O        1.31491065       0.56869805      -0.40950000
O       -0.81540298      -0.21962945      -1.22759068
C        1.18364120       0.67588937      -1.76897669
C       -0.01498890       0.25903183      -2.33608699
N        2.18399382       1.18397927      -2.58948708
H        1.87947321       1.17518997      -3.55244589
C        3.60574198       0.76193804      -2.44592309
H        3.96500897       0.90642250      -1.40565836
H        4.17977524       1.43606269      -3.11535621
O        3.69370103      -0.58856040      -2.84154320
C        5.01124287      -1.02843285      -2.89345384
H        5.05294466      -2.05466175      -3.25843954
H        5.53370571      -0.95842153      -1.87138224
O        5.72977352      -0.08287770      -3.79330802
C        7.04361200      -0.45333362      -4.05539370
H        7.60675049      -0.70709622      -3.15729618
C        7.79763794       0.26534384      -5.14857531
H        7.26004839       1.05430984      -5.67453098
H        8.85808754       0.52376258      -4.94666862
H       -0.30918038       0.09541523      -3.39381123
O        7.53543139      -1.02589107      -5.65062952
C        7.32987070      -1.73504961      -4.35643578
H        6.49725294      -2.46888542      -4.37465429
O       -1.07677817       0.24763179      -1.56890249
H       -0.14417264      -1.06270266      -0.28067446
H        0.43998671       0.45130104      -2.92678976
H       -0.05229020      -1.56724477      -0.41267449
