17
Properties=species:S:1:pos:R:3 pbc="F F F"
C        0.00000000       0.00000000       0.00000000
H        0.63124442      -0.16361660       0.89825344
H       -0.16056459       1.07836044      -0.20846380
O       -1.33828795      -0.59258074       0.27916202
O        0.61683148      -0.74151266      -1.28909862
C        0.52981460      -1.18835998      -2.70784926
H        0.90282917      -0.39836866      -3.39259243
C       -1.50577259      -1.51605797      -0.71885455
O       -2.51855278      -2.13628268      -0.79432768
H        1.20957780      -2.05532837      -2.84344912
C       -0.88524163      -1.47665215      -2.83823895
C       -2.10923290      -1.74506211      -3.34053349
H       -2.31171703      -1.93224978      -4.33293486
N       -0.97864318      -1.27765894      -1.50625682
C       -3.12072515      -1.65800464      -2.33345747
H       -4.21823788      -1.80248904      -2.41524482
O       -4.43525600      -1.36660898      -2.43141723
