20
Properties=species:S:1:pos:R:3 pbc="F F F"
C        0.00000000       0.00000000       0.00000000
H        1.03724897       0.02897582       0.39417550
H       -0.40632996       1.01650417      -0.18361488
O        0.05784981      -0.68624467      -1.32129455
O       -0.90113568      -0.77658379       0.89720106
C       -0.77645469      -1.75628638      -1.13196707
C       -1.38457227      -1.88914347       0.11086857
N       -1.05158615      -2.69324493      -2.12116337
H       -1.67782593      -3.39960885      -1.76203513
C        0.02836502      -3.26194286      -2.97578931
H        0.62053484      -2.45850039      -3.46149969
H       -0.49577844      -3.84047174      -3.76488829
O        0.82850832      -4.07875919      -2.15075588
H        1.44864416      -4.54042625      -2.73658419
C       -2.20376873      -2.98947048       0.58065110
H       -2.44962692      -2.99895597       1.64251876
H       -2.05721784      -3.98765922       0.16804808
C       -2.80751801      -1.83438897      -0.29466081
H       -3.48204803      -1.15743983       0.22959900
H       -3.11408210      -2.09657431      -1.26408172
