14
Properties=species:S:1:pos:R:3 pbc="F F F"
C        0.00000000       0.00000000       0.00000000
H       -0.93002629      -0.40574095       0.45002735
H        0.51002586       0.71923029       0.67430013
O        0.93219924      -1.14739823      -0.18595605
O       -0.24981923       0.59258074      -1.34407449
C        1.11150861      -1.15932047      -1.54411805
C        1.93735361      -2.09218359      -2.32427478
H        1.90870154      -1.89045703      -3.41541386
O        2.59709787      -2.99653363      -1.86494100
C        0.55432051      -0.23582160      -2.18787956
C        0.59329778       0.03859910      -3.67222166
H       -0.40311444      -0.06558383      -4.10164928
H        0.94146001       1.05827916      -3.83694839
H        1.27176404      -0.65311587      -4.17153454
