29
Properties=species:S:1:pos:R:3 pbc="F F F"
C        0.00000000       0.00000000       0.00000000
H        1.05889773       0.33288628      -0.00463324
H       -0.69895387       0.84231949       0.18455511
O       -0.14072554      -0.94555515       1.14289975
O       -0.34778476      -0.73185766      -1.25041127
C       -0.58270657      -2.08590412       0.52552181
C       -0.74044168      -2.04961920      -0.85502213
N       -0.86444616      -3.25613260       1.22071004
H       -1.17068911      -3.97495365       0.58070135
C       -1.65596056      -3.24316621       2.48302317
H       -1.21302640      -2.53875923       3.21767926
H       -1.57043195      -4.27457237       2.88425279
O       -2.99050975      -2.91490459       2.16787124
C       -3.82645702      -3.02366090       3.27306938
H       -4.86124134      -2.86299229       2.97056985
H       -3.54051733      -2.27851248       4.10101318
O       -3.58270597      -4.37753391       3.84553003
C       -4.43883848      -4.67756367       4.89867640
H       -4.49144697      -3.88859773       5.64891911
C       -4.50986147      -6.09921980       5.40260792
H       -3.85119510      -6.81983328       4.91786671
H       -4.56762028      -6.24370432       6.50164700
C       -1.30121291      -3.13334441      -1.63833141
H       -1.47800970      -2.91662812      -2.69183803
H       -2.11615729      -3.70144939      -1.18975437
O       -5.72864103      -5.91568565       4.71777964
C       -5.76225090      -4.42739868       4.78078318
H       -6.12752390      -3.93339419       3.85631871
H       -0.44691485      -3.81029367      -1.64206946
