13
Properties=species:S:1:pos:R:3 pbc="F F F"
C        0.00000000       0.00000000       0.00000000
H        0.52008158       0.65867490      -0.72647208
H        0.71039432      -0.47662982       0.70729280
O       -0.90445602       0.86316049       0.81056225
O       -0.89164120      -1.10578752      -0.75783056
C       -2.13684416       0.34026361       0.51953548
C       -2.15962911      -0.74539924      -0.34817147
N       -3.36102152       0.78013605       1.00943410
C       -4.24797487      -0.10195905       0.40336472
H       -5.32321978      -0.03560052       0.56932878
C       -3.57863188      -0.97669852      -0.37721789
H       -4.09709835      -1.75245571      -0.94068271
H       -3.51233315       1.56174791       1.66295314
