13
Properties=species:S:1:pos:R:3 pbc="F F F"
C        0.00000000       0.00000000       0.00000000
H       -0.77251363      -0.02897582       0.79654402
H       -0.23312418      -0.68937027      -0.83816522
O        1.27229929      -0.47151792       0.61564881
O        0.22744940       1.50613260      -0.52146780
C        2.09289598       0.61325121       0.45195535
C        1.54186988       1.72846520      -0.16834012
N        3.42112470       0.69787353       0.85288668
H        3.84482050      -0.07989323       1.33833516
C        2.29564691       2.90210891      -0.37444383
H        1.87849343       3.68599319      -0.81217420
C        1.57085896       2.91350889      -1.46561337
H        3.74568868      -0.08036947       1.33236098
