13
Properties=species:S:1:pos:R:3 pbc="F F F"
C        0.00000000       0.00000000       0.00000000
H        0.85855085      -0.18269925      -0.67941946
H       -0.67453223      -0.87890059       0.06811233
O       -0.79728454       1.11362112      -0.58675653
O        0.50404632       0.45603111       1.45947599
C       -0.72878766       2.07175827       0.39006484
C       -0.01065737       1.74815285       1.53534484
N       -1.30761909       3.33476734       0.34692988
H       -1.82935715       3.62084913      -0.46918657
C        0.12058890       2.66176963       2.60126090
H        0.62749201       2.39791965       3.40967417
C        1.29234290       2.07875538       2.65770125
H       -1.85235703       3.47774768      -0.44282761
