18
Properties=species:S:1:pos:R:3 pbc="F F F"
C        0.00000000       0.00000000       0.00000000
H        0.32641929      -0.42366105      -0.97265661
H        0.59802067      -0.38769794       0.85097641
O       -1.40478158      -0.44684726       0.21682805
O        0.01524903       1.48930252      -0.04293252
C       -2.07946348       0.74355656       0.28495550
C       -1.34384751       1.91378498       0.13821410
N       -3.45414114       0.82817888       0.47256833
H       -3.74431229       1.79555738       0.48145854
C       -4.15138102       0.00780982       1.50259209
H       -3.91553426      -1.07055068       1.38591099
H       -5.23427534       0.15229425       1.30621541
O       -3.76405644       0.50029087       2.76573896
H       -4.31877565       0.05354086       3.42422271
C       -1.84607708       3.28894949       0.27082521
H       -1.07830524       4.05126286       0.40312725
H       -2.67564774       3.43083048       0.96348798
H       -2.25973463       3.44961810      -0.72475111
