20
Properties=species:S:1:pos:R:3 pbc="F F F"
C        0.00000000       0.00000000       0.00000000
H       -0.88960397       0.52829939      -0.40199968
H        0.63314265       0.65867490       0.63037843
O       -0.49049124      -1.09622395       0.88193500
O        0.87399721      -0.66591740      -1.17676675
C        1.98351610      -1.55008447      -1.63208461
H        2.93920708      -0.98813009      -1.68650413
C        0.01376769      -2.23657274       0.31428581
O       -0.18689570      -3.29990506       0.80941975
H        1.75369823      -1.88297081      -2.66575265
C        1.94590175      -2.63899136      -0.55795002
H        2.42938304      -3.62201595      -0.73685658
O        2.35569382      -2.04213071       0.62861061
C        3.81090283      -1.74588561       0.74986744
H        4.89323807      -1.52519298       0.85915846
H        3.62025809      -1.92858481       1.82800233
C        4.54840374      -1.67155588       1.34406209
H        2.76934648      -1.75724781       0.50233310
N        2.39830017      -2.07973099      -0.60330158
O        6.15280533      -1.19462860       2.26413417
