26
Properties=species:S:1:pos:R:3 pbc="F F F"
C        0.00000000       0.00000000       0.00000000
H       -0.93707561      -0.47662982       0.35610741
H        0.46716172       0.64302570       0.77484012
O       -0.36161262       0.88416708      -1.14349580
O        1.03960323      -1.10578752      -0.53717452
C        1.41739511      -2.18428230      -1.49332333
H        1.08318889      -3.17613029      -1.12367034
C        0.29173797       0.31751680      -2.20601106
O        0.17974453       0.82260245      -3.36585808
H        2.52615619      -2.21325803      -1.53700817
C        0.70089608      -1.70010614      -2.75550413
H        0.95847809      -2.12376714      -3.74861145
O       -0.68165141      -1.78594613      -2.49227047
C       -1.27949607      -3.15044260      -2.46347404
H       -1.74140930      -4.15903282      -2.42498446
H       -2.17800736      -2.67381287      -2.90799713
C       -2.19151282      -3.74537086      -2.67884564
H       -2.12117815      -3.79539418      -3.82560182
H       -2.69371319      -4.20228624      -3.72837973
C       -3.43506575      -3.60200000      -2.46455693
H       -1.64034271      -4.69935036      -3.09933043
C       -1.96109760      -2.05697322      -2.01167393
H       -1.07526302      -4.68298292      -1.35379267
H       -2.24027228      -4.19003725      -4.53572178
H       -3.09688830      -2.15526962      -2.65110683
H       -3.03361893      -2.12470889      -2.56391692
