14
Properties=species:S:1:pos:R:3 pbc="F F F"
C        0.00000000       0.00000000       0.00000000
H        0.41306421      -0.40574095      -0.94702244
H       -1.08483100       0.22069269      -0.08084241
O        0.16419131      -1.06043863       1.03373551
O        0.82516718       1.29172254       0.49259454
C        0.93126398      -0.42946196       1.97732759
C        1.28221953       0.80389547       1.70945048
C        2.09034419       1.42651987       2.73987341
H        2.49254513       2.43934226       2.71697092
C        2.29291558       0.52586222       3.77904558
H        2.86232209       0.72395402       4.68713999
N        1.71118057      -0.68043911       3.60898638
H        1.77098775      -1.45025790       4.29067659
C        1.43966651      -0.95687079       3.29773092
