23
Properties=species:S:1:pos:R:3 pbc="F F F"
C        0.00000000       0.00000000       0.00000000
H        1.08210874       0.02897582       0.24556144
H       -0.31457430      -0.98302472      -0.40841728
O       -0.23503920       1.02336860      -1.05715239
O       -0.89221835       0.42908919       1.26961648
C       -1.31648111       1.45245779       2.26601791
H       -0.64689851       1.44279826       3.15126657
C       -1.09142065       1.91106713      -0.46091372
O       -1.47713745       2.93000364      -1.11351597
H       -2.32774401       1.17529058       2.63019490
C       -1.23712540       2.74055099       1.44418049
H       -1.73373795       3.64251399       1.85883474
O        0.09515381       2.94544029       1.10484195
C        0.98673171       3.41695833       2.20159054
H        0.41838568       3.12112665       3.10799313
C        2.26019669       2.54116440       2.08424783
H        2.00151849       1.49716187       1.90748894
H        2.88404393       2.64534736       2.97197509
H        2.79518414       2.92187691       1.21422148
O        1.29459536       4.79237652       2.16231513
H        0.56543064       5.19358158       1.66406536
C       -1.50059223       1.38838816       0.96185917
H       -1.06984532       2.77817917      -2.04730487
