16
Properties=species:S:1:pos:R:3 pbc="F F F"
C        0.00000000       0.00000000       0.00000000
H       -0.05175790      -0.71923029      -0.84387690
H       -0.74574167       0.81665015      -0.09513737
O       -0.33347267      -0.75433499       1.24091601
O        1.48813951       0.58850700       0.17662817
C        0.81021065      -0.59967500       1.97913492
C        1.78909707       0.11316705       1.42910206
N        1.10400152      -1.08517051       3.24802399
C        2.39449477      -0.59967494       3.42414761
H        2.96390128      -0.79776675       4.33224201
N        2.84339952       0.11316711       2.39495420
H        0.54467857      -1.71070957       3.84531641
C       -1.64916205      -0.84139252       1.79434240
H       -2.32927251      -0.83190697       0.94260359
H       -1.87135971       0.00995475       2.43772030
H       -1.77455950      -1.77896905       2.33593702
