13
Properties=species:S:1:pos:R:3 pbc="F F F"
C        0.00000000       0.00000000       0.00000000
H       -0.68291050       0.57852900       0.65653384
H       -0.54693121      -0.70440698      -0.66089058
O        0.86594307      -0.82036906       0.89288014
O        0.95996702       0.97778422      -0.84528035
C        2.12532568      -0.38682574       0.57210881
C        2.20214963       0.60244256      -0.40131021
N        3.31497550      -0.84957981       1.12228155
H        3.28971100      -1.55594373       1.84374619
C        3.43213701       1.14060652      -0.83213294
H        3.43822289       1.84519339      -1.52756071
C        2.68844986       2.21821237      -0.87448061
H        3.20497417      -1.58566093       1.74436188
