25
Properties=species:S:1:pos:R:3 pbc="F F F"
C        0.00000000       0.00000000       0.00000000
H       -1.01848304      -0.10609454       0.42841068
H        0.57426220       0.82961047       0.46267554
O       -0.16515341       0.32161444      -1.44547093
O        0.81540900      -1.38486052       0.09678139
C        1.99537945      -2.22675276      -0.24816023
H        2.81496811      -2.08226824       0.48634487
C        0.58097959      -0.63652265      -2.07962966
O        0.68089586      -0.62547070      -3.34564447
H        1.68690133      -3.28991127      -0.16670817
C        2.33512092      -1.74257660      -1.65920496
H        3.04916120      -2.33750486      -2.26608706
O        2.68283939      -0.37879205      -1.57387245
C        4.01382589      -0.05717760      -0.98638904
H        4.27449036      -0.98111004      -0.42916185
C        3.72361851       1.05644345      -0.03996128
H        4.59808922       1.43263924       0.56887144
O        2.58503008       1.53353918       0.15623991
H        1.34276927      -1.78998995      -2.10763478
H        0.03296101       0.08230394      -3.77194810
C        5.07695770       0.27738777      -2.06356812
H        6.10278225       0.38348231      -1.65304756
H        5.01577044      -0.45751461      -2.83885765
H        4.81082487       1.27775824      -2.46423173
N        1.00571346      -1.58696270      -1.12864971
