13
Properties=species:S:1:pos:R:3 pbc="F F F"
C        0.00000000       0.00000000       0.00000000
H        0.38938144      -0.84231949      -0.60908061
H        0.38088503       0.98302472      -0.34740213
O        0.50662363      -0.19394752       1.38773727
O       -1.60918295      -0.01401074       0.04930183
C       -0.65367639      -0.30113888       2.10823178
C       -1.83726692      -0.19238269       1.38754892
N       -0.77412575      -0.48206979       3.48113179
C       -2.15438414      -0.49416602       3.64495540
H       -2.61328554      -0.61721665       4.62595844
C       -2.77534986      -0.34176385       2.45597529
H       -3.84235048      -0.33245236       2.37646151
H       -0.00850326      -0.54477555       4.16727304
