23
Properties=species:S:1:pos:R:3 pbc="F F F"
C        0.00000000       0.00000000       0.00000000
H       -0.73478127       0.56195438       0.61351693
H       -0.34929708      -0.16361660      -1.04082680
O        0.16756453      -1.34283936       0.62354010
O        1.44164002       0.71652877       0.01892470
C        2.89747000       0.70356232      -0.29807508
H        3.08627176       1.10930324      -1.31386411
C        1.50742722      -1.40243220       0.90303051
O        1.99173284      -2.44713402       1.43870270
H        3.39768267       1.39293265       0.41372192
C        3.25289416      -0.77628893      -0.14119460
H        4.33114338      -1.03470767      -0.08925810
O        2.60723400      -1.47999740      -1.15115285
C        3.17407370      -1.28604984      -2.51540184
H        3.58010173      -1.17995524      -3.54301286
H        2.72697186      -0.27745974      -2.63765216
C        3.14829469      -0.21925473      -3.49712586
H        3.87409663      -0.71254039      -2.11396146
H        2.72054863       1.49479663      -0.45494574
O        2.52203584       2.60899162      -0.62865639
O        2.16246271       1.20194542       1.34760857
O        4.50942707       0.94176632      -1.13099122
O        4.57605410       0.94176632      -0.98692250
