13
Properties=species:S:1:pos:R:3 pbc="F F F"
C        0.00000000       0.00000000       0.00000000
H        0.95175505       0.47662982      -0.31477839
H        0.10134637      -0.54520947       0.96154815
O       -0.98413211       1.09622395       0.22332768
O       -0.59991622      -0.95537513      -1.14867580
C       -1.98408568       0.77727473      -0.65716213
C       -1.79136097      -0.33323514      -1.40021229
N       -3.17542553       1.46001434      -0.87320477
C       -3.75895977       0.67462486      -1.86049867
H       -4.73635817       0.90989989      -2.28173161
C       -2.96219063      -0.36496419      -2.18747211
H       -3.22178411      -1.07273889      -2.91833854
H       -3.61520290       2.12740827      -0.22352725
