18
Properties=species:S:1:pos:R:3 pbc="F F F"
C        0.00000000       0.00000000       0.00000000
H       -1.00652027      -0.44145283       0.15535642
H        0.67193860      -0.67412466      -0.57109874
O       -0.17922229       1.24023342      -0.80610067
O        0.65751374       0.42908919       1.40558004
C        0.65751374       1.24945831       2.64940166
H        0.07184196       0.75545388       3.45255017
C        0.25103158       2.23186946       0.03558689
H        1.69992113       1.31703448       3.02479434
C        0.22998896       3.64053822      -0.30749857
H       -0.12642223       3.97914505      -1.25787520
C        0.70750070       4.38382578       0.71328771
H        0.83983952       5.46120548       0.81247860
C        0.75863123       2.03877234       1.22770882
N        1.06361282       3.56700945       1.80603361
H        2.08300734       3.53959990       2.05620003
C        0.03203076       2.60443807       2.31220961
H       -1.06438065       2.67201424       2.15278864
