13
Properties=species:S:1:pos:R:3 pbc="F F F"
C        0.00000000       0.00000000       0.00000000
H        0.50803316      -0.98302472       0.08754402
H        0.21673425       0.65867490       0.86675996
O        0.55477232       0.66312295      -1.21350467
O       -1.58306038      -0.18175368      -0.23018086
C       -0.56401366       0.86506414      -1.97798896
C       -1.76310992       0.40231007      -1.44872046
N       -0.61892271       1.46192479      -3.23211837
C       -1.97953677       1.37730241      -3.50353503
H       -2.40419078       1.75801480      -4.43241930
C       -2.62176800       0.77648628      -2.47930002
H       -3.65949297       0.62171382      -2.52018595
H        0.16134953       1.87156129      -3.76529074
