24
Properties=species:S:1:pos:R:3 pbc="F F F"
C        0.00000000       0.00000000       0.00000000
H       -0.11036894       0.35126507       1.04715371
H        0.62739575      -0.91308600      -0.06890396
O       -1.36168671      -0.37205324      -0.47695243
O        0.52310258       1.07849467      -0.88504857
C       -1.52513003       0.44090578      -1.56749463
C       -0.49947023       1.32300091      -1.88691378
N       -2.67274141       0.42880955      -2.35167575
H       -2.58671951       1.09653401      -3.10456610
C       -3.30758619      -0.85283160      -2.76936698
H       -4.23673439      -0.63213891      -3.33512115
H       -2.63044715      -1.43136060      -3.43185186
O       -3.57902050      -1.58771968      -1.59703553
C       -4.14182138      -2.81871462      -1.91327143
H       -3.50674200      -3.45015430      -2.53460670
C       -5.60032129      -2.90942478      -2.20421457
H       -5.94652843      -3.57140303      -2.99795556
H       -6.22224140      -2.02371359      -2.07448435
H       -0.30556309       1.98167586      -2.75906444
N       -5.02551460      -3.52570868      -0.97543895
H       -5.23053360      -2.90263772      -0.15553093
O        0.34955698       1.67008412      -0.84250772
H        1.68623292      -1.99038839      -1.39494252
H        1.75572813      -1.93067884      -1.38475597
