13
Properties=species:S:1:pos:R:3 pbc="F F F"
C        0.00000000       0.00000000       0.00000000
H        0.27947843      -0.95477980      -0.49232763
H       -1.09459889       0.18269925      -0.02395066
O        0.38550419      -0.11658037       1.43453598
O        0.80543178       1.23980618      -0.63738346
C        1.30252457       0.89135706       1.57607830
C        1.57414198       1.65666783       0.44797301
N        2.00050139       1.21496248       2.73375106
H        1.83557725       0.68855321       3.57979631
C        2.50982928       2.71049738       0.49304265
H        2.68919206       3.25557494      -0.31369084
C        2.73691273       2.29594135      -0.72870821
H        1.70304370       0.70940107       3.50629616
