18
Properties=species:S:1:pos:R:3 pbc="F F F"
C        0.00000000       0.00000000       0.00000000
H        0.62911803       0.62911803       0.62911803
H       -0.62911803      -0.62911803       0.62911803
H        0.62911803      -0.62911803      -0.62911803
C       -0.87604135       0.88633257      -0.88761693
O       -0.23039031       1.72475576      -1.72587681
H        0.68322796       1.60370123      -1.60118818
C       -2.28580856       0.51427937      -1.19458663
H       -2.66528034       0.92267334      -2.10788536
C       -2.95441628      -0.72784638      -0.65589833
H       -3.88356447      -0.94853908      -1.22165239
O       -2.30505657      -1.82190430      -0.26825443
H       -2.59330130      -2.09665608       0.61623752
N       -3.18265057       0.51238704       0.13771868
C       -2.05426383       0.85927343       1.04684508
H       -2.41204834       1.50608039       1.84792578
H       -1.52219415      -0.00769490       1.49110508
O       -1.25968122       1.60427380       0.18329918
