15
Properties=species:S:1:pos:R:3 pbc="F F F"
C        0.00000000       0.00000000       0.00000000
H        0.62911803       0.62911803       0.62911803
H       -0.62911803      -0.62911803       0.62911803
H        0.62911803      -0.62911803      -0.62911803
C       -0.89144140       0.88633257      -0.87214947
O       -1.72686839       1.72475576      -0.22283697
H       -1.59541607       1.60109794       0.70986271
C       -1.20457673       0.51427937      -2.28056002
H       -2.11952710       0.92267334      -2.65603209
C       -0.66881895      -0.72784638      -2.95151806
H       -1.22232842      -0.94853908      -3.88801217
O       -0.14041501      -1.74927127      -2.36707020
C       -0.19220960       1.53212643      -1.81237447
H       -0.39523178       2.55219698      -1.95637870
N       -0.07041401       0.58968103      -2.85915422
