18
Properties=species:S:1:pos:R:3 pbc="F F F"
C        0.00000000       0.00000000       0.00000000
H        0.62911803       0.62911803       0.62911803
H       -0.62911803      -0.62911803       0.62911803
H        0.62911803      -0.62911803      -0.62911803
C       -0.87604135       0.88633257      -0.88761693
O       -0.23039031       1.72475576      -1.72587681
H        0.70287561       1.60109794      -1.59850681
C       -2.28580856       0.51427937      -1.19458663
H       -2.66528034       0.92267334      -2.10788536
C       -2.95441628      -0.72784638      -0.65589833
H       -3.88356447      -0.94853908      -1.22165239
O       -2.26342511      -1.83835626      -0.32153690
H       -2.56201029      -2.16128540       0.54302269
N       -3.19142938       0.49969125       0.22607327
C       -2.02295971       0.79593635       1.10186720
H       -2.36074543       1.41181743       1.93534827
H       -1.48766458      -0.08296424       1.51791060
O       -1.24131346       1.60116661       0.28166497
