21
Properties=species:S:1:pos:R:3 pbc="F F F"
C        0.00000000       0.00000000       0.00000000
H        0.62911803       0.62911803       0.62911803
H       -0.62911803      -0.62911803       0.62911803
H        0.62911803      -0.62911803      -0.62911803
C       -0.87604135       0.88633257      -0.88761693
O       -0.23039031       1.72475576      -1.72587681
H        0.70060188       1.58472347      -1.59881711
C       -2.29710078       0.53944618      -1.17109132
H       -2.68959641       0.96499079      -2.07095695
C       -2.95617843      -0.70267957      -0.62078428
H       -3.90776181      -0.90440607      -1.15547562
O       -2.21885204      -1.82638097      -0.49372858
H       -2.45237708      -2.30282545       0.31828529
C       -1.82449019       1.55729318      -0.16078234
H       -2.00952530       2.56808376      -0.37656882
N       -3.35184646      -0.17265773       0.66957283
O       -3.36978269      -0.95609987       1.69426560
H       -3.69216180      -0.45018476       2.53153563
N       -3.58813643       1.15377533       0.75466579
H       -4.13479996       1.36253870       1.62648916
H       -3.90409875       1.72087622      -0.04499894
