18
Properties=species:S:1:pos:R:3 pbc="F F F"
C        0.00000000       0.00000000       0.00000000
H        0.62911803       0.62911803       0.62911803
H       -0.62911803      -0.62911803       0.62911803
H        0.62911803      -0.62911803      -0.62911803
C       -0.87604135       0.88633257      -0.88761693
O       -0.23039031       1.72475576      -1.72587681
H        0.70287561       1.60109794      -1.59850681
C       -2.29710078       0.53944618      -1.17109132
H       -2.67657256       0.94784015      -2.08439016
C       -2.96570849      -0.70267957      -0.63240302
H       -3.90778828      -0.90440607      -1.18366611
O       -2.26826668      -1.83923244      -0.42187732
H       -2.51235294      -2.24043751       0.42686051
N       -3.19047236       0.45835525       0.33835810
C       -1.99593508       0.67798471       1.20145798
H       -2.33576679       1.32101035       2.03998756
H       -1.61000848      -0.25651431       1.65957522
O       -1.66731489       1.62122059       0.01898319
