18
Properties=species:S:1:pos:R:3 pbc="F F F"
C        0.00000000       0.00000000       0.00000000
H        0.62911803       0.62911803       0.62911803
H       -0.62911803      -0.62911803       0.62911803
H        0.62911803      -0.62911803      -0.62911803
C       -0.87604135       0.88633257      -0.88761693
O       -0.23039031       1.72475576      -1.72587681
H        0.70287561       1.60109794      -1.59850681
C       -2.28580856       0.51427937      -1.19458663
H       -2.66528034       0.92267334      -2.10788536
C       -2.95441628      -0.72784638      -0.65589833
H       -3.89649630      -0.92957294      -1.20716143
O       -2.27340913      -1.86439919      -0.39710191
H       -2.53809738      -2.21896553       0.46610275
N       -3.17458820       0.45035446       0.29503000
C       -1.98333001       0.69559932       1.15576053
H       -2.32371974       1.27412832       2.03980708
H       -1.52520180      -0.22833312       1.56632924
C       -1.01165533       1.48031020       0.23784178
