18
Properties=species:S:1:pos:R:3 pbc="F F F"
C        0.00000000       0.00000000       0.00000000
H        0.62911803       0.62911803       0.62911803
H       -0.62911803      -0.62911803       0.62911803
H        0.62911803      -0.62911803      -0.62911803
C       -0.87604135       0.88633257      -0.88761693
O       -0.23039031       1.72475576      -1.72587681
H        0.70287561       1.60109794      -1.59850681
C       -2.29710078       0.53944618      -1.17109132
H       -2.67657256       0.94784015      -2.08439016
C       -2.98244095      -0.68754822      -0.61892182
H       -3.92452097      -0.88927472      -1.17018485
O       -2.30606747      -1.82410097      -0.34824666
H       -2.58582211      -2.17866731       0.51019347
N       -3.19795418       0.50746197       0.31188560
C       -2.00669599       0.75270689       1.17261612
H       -2.31808710       1.36390972       1.94096899
C       -0.72431910       0.23730630       0.89338493
C       -2.39543867       1.13185453       1.56214356
