18
Properties=species:S:1:pos:R:3 pbc="F F F"
C        0.00000000       0.00000000       0.00000000
H        0.62911803       0.62911803       0.62911803
H       -0.62911803      -0.62911803       0.62911803
H        0.62911803      -0.62911803      -0.62911803
C       -0.87604135       0.88633257      -0.88761693
O       -0.23039031       1.72475576      -1.72587681
H        0.70060188       1.58472347      -1.59881711
C       -2.29710078       0.53944618      -1.17109132
H       -2.69249797       0.94784015      -2.07760906
C       -2.96269703      -0.68754822      -0.59527516
H       -3.92349219      -0.88927472      -1.11323106
O       -2.27726507      -1.82410097      -0.34843671
H       -2.51158214      -2.17866731       0.52350235
N       -3.14550328       0.50746197       0.34250426
C       -1.92485225       0.75270689       1.16101742
H       -2.20519590       1.39573264       2.02126431
H       -1.50435996      -0.17122555       1.61005449
C       -0.94982696       1.44253278       0.17310876
