15
Properties=species:S:1:pos:R:3 pbc="F F F"
C        0.00000000       0.00000000       0.00000000
H        0.62911803       0.62911803       0.62911803
H       -0.62911803      -0.62911803       0.62911803
H        0.62911803      -0.62911803      -0.62911803
C       -0.87604135       0.88633257      -0.88761693
O       -0.23039031       1.72475576      -1.72587681
H        0.70287561       1.60109794      -1.59850681
C       -2.28580856       0.51427937      -1.19458663
H       -2.66528034       0.92267334      -2.10788536
C       -2.95441628      -0.72784638      -0.65589833
H       -3.89332342      -0.94853908      -1.20530486
O       -2.38355494      -1.73540401      -0.08752924
C       -1.81319797       1.53212643      -0.18427765
H       -1.95808911       2.55219698      -0.38666785
N       -2.84898400       0.58968103      -0.05965710
