18
Properties=species:S:1:pos:R:3 pbc="F F F"
C        0.00000000       0.00000000       0.00000000
H        0.62911803       0.62911803       0.62911803
H       -0.62911803      -0.62911803       0.62911803
H        0.62911803      -0.62911803      -0.62911803
C       -0.87604135       0.88633257      -0.88761693
O       -0.23655486       1.70621383      -1.74863386
H        0.69651836       1.56618154      -1.63788688
C       -2.27039266       1.23321891      -0.49321604
H       -2.63599992       2.14395523      -0.91958439
C       -2.94056678       0.73051488       0.76306951
H       -3.84400511       1.29861999       0.98477954
H       -2.31577158       0.64523125       1.65214586
O       -3.34206653      -0.59699202       0.50886118
C       -3.73132467      -0.84960449      -0.80139196
H       -3.84116220      -1.92698407      -0.92503709
H       -4.70257759      -0.35560006      -1.01287746
O       -2.68764472      -0.43889320      -1.72038412
C       -1.75388885       0.69178772      -1.45626569
