18
Properties=species:S:1:pos:R:3 pbc="F F F"
C        0.00000000       0.00000000       0.00000000
H        0.62911803       0.62911803       0.62911803
H       -0.62911803      -0.62911803       0.62911803
H        0.62911803      -0.62911803      -0.62911803
C       -0.89144140       0.88633257      -0.87214947
O       -1.74965203       1.70621383      -0.22890162
H       -1.61851990       1.56618154       0.70152569
C       -0.52617693       1.20794702      -2.28042626
H       -0.94770950       2.11868334      -2.65159869
C        0.71927297       0.68053818      -2.95183682
H        0.92702520       1.24249256      -3.88625956
O        1.84705162       0.43519515      -2.25153637
H        2.23866510      -0.40764570      -2.52930903
N       -0.45672083      -0.26967472      -3.18642545
C       -0.68909907      -1.13283515      -1.99434638
H        0.17754698      -1.71136415      -1.61181796
H       -1.48038280      -1.73741567      -2.38582039
C       -1.16063404       0.37858468      -1.86689389
