15
Properties=species:S:1:pos:R:3 pbc="F F F"
C        0.00000000       0.00000000       0.00000000
H        0.62911803       0.62911803       0.62911803
H       -0.62911803      -0.62911803       0.62911803
H        0.62911803      -0.62911803      -0.62911803
C       -0.87604135       0.88633257      -0.88761693
O       -0.23039031       1.72475576      -1.72587681
H        0.70287561       1.60109794      -1.59850681
C       -2.29710078       0.53944618      -1.17109132
H       -2.67657256       0.94784015      -2.08439016
C       -2.98244095      -0.68754822      -0.61892182
H       -3.92134809      -0.90824091      -1.16832829
O       -2.41444898      -1.70897317      -0.07286781
C       -1.78942227       1.55729318      -0.17794102
H       -1.91230106       2.57736397      -0.39440361
N       -2.87099481       0.64031738      -0.04721326
