18
Properties=species:S:1:pos:R:3 pbc="F F F"
C        0.00000000       0.00000000       0.00000000
H        0.62911803       0.62911803       0.62911803
H       -0.62911803      -0.62911803       0.62911803
H        0.62911803      -0.62911803      -0.62911803
C       -0.87604135       0.88633257      -0.88761693
O       -0.23039031       1.72475576      -1.72587681
H        0.70050353       1.60109794      -1.58219314
C       -2.29710078       0.53944618      -1.17109132
H       -2.69249797       0.94784015      -2.07760906
C       -2.97874594      -0.67204517      -0.58139104
H       -3.93954110      -0.87377167      -1.09934688
O       -2.32296300      -1.80859804      -0.26406634
H       -2.57871652      -2.09949875       0.62524050
N       -3.15348411       0.55549246       0.31499934
C       -1.93656290       0.82627845       1.13101149
H       -2.20980263       1.50040317       1.96945965
H       -1.50267887      -0.07568449       1.61091435
N       -1.02414536       1.51252317       0.17358756
