19
Properties=species:S:1:pos:R:3 pbc="F F F"
C        0.00000000       0.00000000       0.00000000
H        0.62911803       0.62911803       0.62911803
H       -0.62911803      -0.62911803       0.62911803
H        0.62911803      -0.62911803      -0.62911803
C       -0.87604135       0.88633257      -0.88761693
O       -0.23039031       1.72475576      -1.72587681
H        0.70287561       1.60109794      -1.59850681
C       -2.28580856       0.51427937      -1.19458663
H       -2.66528034       0.92267334      -2.10788536
C       -2.94488621      -0.72784638      -0.64427960
H       -3.88379335      -0.94853908      -1.19368601
O       -2.23661900      -1.85154784      -0.40313494
H       -2.48259830      -2.23732185       0.45218498
N       -3.18660545       0.43318844       0.32239920
C       -1.99534726       0.67843330       1.18312979
H       -2.33517885       1.32145905       2.02165937
H       -1.59082735      -0.24549913       1.64660764
O       -1.09221804       1.41332138       0.38789684
H       -3.72349477      -0.13749039       0.95971787
