18
Properties=species:S:1:pos:R:3 pbc="F F F"
C        0.00000000       0.00000000       0.00000000
H        0.62911803       0.62911803       0.62911803
H       -0.62911803      -0.62911803       0.62911803
H        0.62911803      -0.62911803      -0.62911803
C       -0.87604135       0.88633257      -0.88761693
O       -0.23039031       1.72475576      -1.72587681
H        0.70287561       1.60109794      -1.59850681
C       -2.28580856       0.51427937      -1.19458663
H       -2.66528034       0.92267334      -2.10788536
C       -2.95441628      -0.72784638      -0.65589833
H       -3.88356447      -0.94853908      -1.22165239
O       -2.28673387      -1.85154784      -0.31826904
H       -2.57184124      -2.15850925       0.55659556
N       -3.19693804       0.48361099       0.24657166
C       -2.02451944       0.75439703       1.12532520
H       -2.35744619       1.33637643       1.90721989
C       -0.71760690       0.30819550       0.84075147
C       -0.81604660      -0.04394871       1.05651152
