20
Properties=species:S:1:pos:R:3 pbc="F F F"
C        0.00000000       0.00000000       0.00000000
H        0.62911803       0.62911803       0.62911803
H       -0.62911803      -0.62911803       0.62911803
H        0.62911803      -0.62911803      -0.62911803
C       -0.88749290       0.89791858      -0.89921981
H       -0.22175062       1.52510023      -1.52813125
N       -1.77299023       0.08992797      -1.67892730
C       -2.61940074       0.72114033      -2.70169711
H       -2.41129279       1.78007078      -2.85485268
H       -2.64432383       0.18575442      -3.65082312
C       -3.19538736       0.22851992      -1.43382025
H       -3.73403525      -0.71858984      -1.46449244
C       -1.62362039       1.85616565       0.00630575
O       -2.82851362       1.95083833       0.06434214
H       -0.95563829       2.46731329       0.64848781
C       -3.65912986       1.13342583      -0.34469855
C       -4.98270702       0.99101067       0.32459909
H       -5.79702377       0.88682771      -0.39243186
H       -5.15155935       1.86553109       0.95293194
H       -4.98270702       0.09437668       0.94439477
