16
Properties=species:S:1:pos:R:3 pbc="F F F"
C        0.00000000       0.00000000       0.00000000
H        0.62911803       0.62911803       0.62911803
H       -0.62911803      -0.62911803       0.62911803
H        0.62911803      -0.62911803      -0.62911803
C       -0.88749290       0.89791858      -0.89921981
H       -0.23522967       1.50249910      -1.49414372
C       -1.96272349       0.09295708      -1.75010991
H       -2.64632511      -0.58399206      -1.23773527
C       -2.16240072       0.34193483      -3.08241510
C       -2.40027046       0.56183493      -4.24824572
C       -2.03620219      -1.30091715      -1.22875285
C       -2.82362700      -0.38271302      -1.25977695
C       -2.66812992      -0.59503913       0.00309157
C       -2.46872282      -0.50601208      -0.02570271
C       -3.81990194      -1.15440035       0.15870309
C       -3.83392310      -1.13056815       0.13633363
