17
Properties=species:S:1:pos:R:3 pbc="F F F"
C        0.00000000       0.00000000       0.00000000
H        0.62911803       0.62911803       0.62911803
H       -0.62911803      -0.62911803       0.62911803
H        0.62911803      -0.62911803      -0.62911803
C       -0.90309423       0.89791858      -0.88355011
H       -1.52920198       1.51379967      -0.23796606
C       -0.06831467       1.79067814      -1.70026398
N        0.61309320       2.45687580      -2.34397435
N       -1.80753350       0.12075996      -1.70848179
C       -1.53126407      -0.66129822      -2.77363849
H       -0.55800629      -0.72643918      -3.21343994
N       -3.09524679       0.01669828      -1.39246798
C       -2.74921870      -1.28881729      -3.10666156
H       -2.92609954      -1.98212934      -3.90223122
H       -3.47000480       0.55802959      -0.62655914
C       -3.69141960      -0.81940490      -2.16857433
H       -4.73394680      -1.05036294      -2.10005236
