16
Properties=species:S:1:pos:R:3 pbc="F F F"
C        0.00000000       0.00000000       0.00000000
H        0.60687363      -1.31280398      -0.94928759
C        0.06804734      -0.05317390      -0.18254393
C       -0.55624628      -0.77097052      -0.68534243
C        0.53171027      -0.41829953      -1.41890883
C        0.53847903      -0.42362982      -1.43695807
C        0.81938434      -0.64483738      -2.18599701
N       -0.48587912       0.39177710       1.33091331
C        0.18192250      -0.14911929      -0.51045412
O       -0.36494699       0.29596081       1.00350809
O       -0.36494699       0.29596081       1.00350809
N       -0.76011109       0.59310400       2.08593607
C       -0.60721523       0.50117749       1.70500088
C       -1.01101053      -0.07429156       0.10105902
C       -1.00716162      -0.09355164       0.10643536
O       -0.47732717       0.38657591       1.31133819
