7
Properties=species:S:1:pos:R:3 pbc="F F F"
C        0.00000000       0.00000000       0.00000000
H        0.43558341      -1.48807991      -0.76732129
C        0.05870056      -0.13762581      -0.06082958
O        0.17697981      -0.13474298       0.02621567
O        1.19495749      -1.45472145      -0.25212795
O        1.20407498      -1.45472145      -0.21633154
O        1.19967294      -1.45472145      -0.23426965
