26
Properties=species:S:1:pos:R:3 pbc="F F F"
C        0.00000000       0.00000000       0.00000000
H        0.75296217      -1.25221181       0.92623454
C        0.09193838      -0.11581147       0.06801581
C        1.59050918      -2.31265044       1.55399466
C        0.85586476      -1.10386789       0.66627866
C        0.35178888      -0.44876939       0.27382404
N       -0.83169293       1.04620457      -0.61207914
C        0.76759207      -1.18734133       0.33800334
N       -0.82801652       1.07849467      -0.60937351
C       -0.38152486       0.52626485      -0.34943962
O       -0.13653955       0.09995478      -0.11261752
O       -1.17241037       0.69900644      -0.99646401
O       -1.17241037       0.69900644      -0.99646401
O       -1.16296315       0.72567946      -0.98843449
C       -0.74071330       1.73300695      -0.59574020
C       -0.75396776       1.74310148      -0.60804373
C       -0.79401451       1.72659647      -0.64521718
O       -1.57992351      -0.09891564      -1.36815345
O       -0.36555165       0.41624472      -0.00393027
O       -1.56960154      -0.10839409      -1.35873890
O       -0.41875345       0.41624472       0.03704727
C       -1.44210815       0.72490823       0.98697865
C       -1.44210815       0.72490823       0.98697865
N       -1.02703583       0.67715561       0.60168678
C       -1.41697311       0.77331591       0.99671167
C       -1.35161185       0.91571134       0.99892384
