16
Properties=species:S:1:pos:R:3 pbc="F F F"
C        0.00000000       0.00000000       0.00000000
H       -1.72201526       0.10532132      -0.12832585
C       -0.16285694       0.00974070       0.02911341
C       -0.65078819       0.03774520       0.15452626
C       -1.44551694       0.10425080      -0.13955373
C       -1.44768906       0.05993390      -0.14035752
C       -3.00016689      -0.17148773      -0.17432693
C       -3.02030516      -0.17443578      -0.14723846
C       -3.00097942      -0.14442691      -0.03826478
C       -2.50209594       0.31789964       1.11924314
C       -2.53744864      -0.27680904      -1.83796644
C       -2.53744864      -0.27680904      -1.83796644
C       -2.53744864      -0.27680904      -1.83796644
C       -2.53744864      -0.27680904      -1.83796644
C       -2.53744864      -0.27680904      -1.83796644
C       -2.53800988      -0.30684614      -1.83594847
