22
Properties=species:S:1:pos:R:3 pbc="F F F"
C        0.00000000       0.00000000       0.00000000
H        0.78567785       1.12096226      -1.05785191
C        0.09810972       0.10367274      -0.07945031
C        1.68797398       2.07920933      -1.79793429
C        0.99164701       1.04896069      -0.80706894
C        2.16947746       1.85831809      -1.15138507
C        2.16947746       1.85831809      -1.15138507
C        2.18550253       1.86932969      -1.15606952
C        3.52941132       2.50670624      -1.25272810
C        3.53254247       2.50670624      -1.10962355
C        1.03687477       1.08199573      -0.83102143
C        1.34633756       1.29121721      -0.90291673
N        0.41688752       0.67484993      -0.62235820
C        1.87520003       0.48974991      -0.29929382
C        1.90677476       0.37675256      -0.46608192
C        1.89624643       0.37675256      -0.44655216
C        2.35241151      -0.20654058      -1.96610665
C        0.77896023       1.48594916      -1.82547116
C        0.77896023       1.48594916      -1.82547116
C        0.77896023       1.48594916      -1.82547116
C        0.77896023       1.48594916      -1.82547116
C        0.79239553       1.48594916      -1.82547116
