13
Properties=species:S:1:pos:R:3 pbc="F F F"
C        0.00000000       0.00000000       0.00000000
H        0.90038729       0.19530053      -1.46425998
C        0.09860581      -0.03612110      -0.13441491
C        1.81331408      -0.06640373      -2.73947477
C        2.21957135       1.08059311      -3.88326216
C        2.21957135       1.08059311      -3.88326216
C        2.21957135       1.08059311      -3.88326216
C        2.21957135       1.08059311      -3.88326216
C        2.21957135       1.08059311      -3.88326216
C        2.21957135       1.08059311      -3.88326216
C        2.21957135       1.08059311      -3.88326216
C        2.21957135       1.08059311      -3.88326216
C        2.23952651       1.08059311      -3.87597728
