9
Properties=species:S:1:pos:R:3 pbc="F F F"
C        0.00000000       0.00000000       0.00000000
H       -0.99719554       1.25221181      -0.65609705
C       -0.14795744       0.06082320      -0.08663648
C       -0.71581590       0.72218996       0.66390312
C       -1.27922165       0.52357727      -0.74860179
C       -1.27922165       0.52357727      -0.74860179
C       -1.27922165       0.52357727      -0.74860179
C        0.71745956      -0.11772716       1.06931365
C       -1.29549885       0.53023559      -0.75812650
