29
Properties=species:S:1:pos:R:3 pbc="F F F"
C        0.00000000       0.00000000       0.00000000
H        0.64378464      -0.63237089      -1.47598958
C        0.09490323      -0.05848515      -0.12163293
C        0.41073239      -0.22662994      -0.46943104
C        0.49787360      -0.59161681      -1.23211765
C        0.51936430      -0.41010135      -1.29225373
C        0.22173473       0.30015111      -0.25733507
C        1.46761191      -0.69604230      -1.27612555
C        1.33129406      -0.63149154      -1.37007058
O        2.41656685      -1.05916440      -1.27963901
O        2.37557316      -1.13388515      -1.20888591
O        2.33325100      -1.27444828      -0.92781740
C        2.39102054      -1.45419919      -0.55012214
C        2.28097749      -0.83262652      -2.08759689
C        2.26616025      -0.84691918      -2.08885455
C        2.35574031      -0.64845312      -2.66892457
C        2.38046074      -0.60030472      -2.65464544
C        2.53411341      -0.91804934      -1.64999044
C        2.71559143      -0.66758978      -1.85992825
C        1.34249246      -1.23068333      -2.41365623
C        1.32060683      -1.20304763      -2.39647174
C        1.34092534      -1.17539108      -2.41548395
C        1.58819366      -2.65903091      -2.54878402
C        1.58819366      -2.65903091      -2.54878402
C        1.58582294      -2.65903091      -2.55309105
C        1.51658916       0.24228239      -2.69678211
C        1.51160741       0.24228239      -2.69978547
C        1.51658916       0.24228239      -2.69678211
C        1.51160741       0.24228239      -2.69978547
