20
Properties=species:S:1:pos:R:3 pbc="F F F"
C        0.00000000       0.00000000       0.00000000
H        1.68652940       0.04516050       0.38272178
C        0.16139090      -0.05042012       0.02256241
C        3.20814371      -0.35186273       0.61758327
C        4.39614391       0.68529767       1.16699314
C        4.39614391       0.68529767       1.16699314
C        4.40557718       0.68529767       1.14611769
C        0.57831478       0.18175800       0.84887683
C        3.29699993       0.32990789      -0.18137115
C        3.10412645       0.13686517      -1.86945629
C        3.10412645       0.13686517      -1.86945629
C        3.13369942       0.13686517      -1.87257338
C        4.09055948       0.42360705       0.04309191
C        0.67700410      -0.69055355       0.61181194
C        0.67700410      -0.69055355       0.61181194
C        4.09321642       0.39484867       0.04384351
C        2.34391022       0.00678713      -0.93153703
C        2.34391022       0.00678713      -0.93153703
C        2.34391022       0.00678713      -0.93153703
C        2.32080865       0.00678713      -0.94284046
