30
Properties=species:S:1:pos:R:3 pbc="F F F"
C        0.00000000       0.00000000       0.00000000
H        0.50874346      -0.66030037      -1.51594198
C        0.01398009      -0.09372532      -0.16069305
C        0.75042480      -1.34654498      -2.81623268
C        0.14828253      -0.80389100      -1.40207279
N        1.33550954       0.19600618      -0.97452748
N        1.34249818       0.20842725      -0.94824678
C        0.91666734       0.24775366      -1.71235764
C        2.19048619       1.40257168      -1.55874658
C        1.04812229       0.43496513      -0.18370557
C        2.15529799       1.43787944      -1.53470182
C        1.17743552      -0.32021552      -1.63105440
C        1.17806935      -0.24701160      -1.68265712
H        0.86040634       0.34684676      -1.63817191
O        1.56101501      -0.79845089      -2.51930857
O        0.94142812       1.14179873      -2.02573800
O        0.92613876       1.16095495      -2.02186108
O        1.54679394      -0.79845089      -2.53046179
O        2.45448351      -0.76843089      -1.82498503
O        2.45448351      -0.76843089      -1.82498503
O        0.68558317      -0.84847409      -3.26336217
O        2.51468563      -0.76686466      -1.80500555
C        3.78919029      -0.78070116      -1.37055588
C        3.78919029      -0.78070116      -1.37055588
C        3.78919029      -0.78070116      -1.37055588
C        3.78919029      -0.78070116      -1.37055588
C        3.78919029      -0.78070116      -1.37055588
C        3.78919029      -0.78070116      -1.37055588
C        3.78919029      -0.78070116      -1.37055588
C        3.79693842      -0.78070116      -1.39398420
