25
Properties=species:S:1:pos:R:3 pbc="F F F"
C        0.00000000       0.00000000       0.00000000
H       -0.78038114      -0.57594562      -1.43254614
C       -0.03384429      -0.07911131      -0.14385068
C       -1.13025415      -1.29903555      -2.78148174
C       -0.32017851      -0.84866941      -1.48956645
C       -0.15650067      -0.29684037      -0.56393498
C        0.17763022       0.30397576       0.59790617
C       -0.01191296      -0.82473660      -1.21425784
C       -0.03476056      -0.82473660      -1.21891952
N        0.57702392      -0.75556159      -0.71338493
C        0.71562541      -1.76771712      -0.56775099
C        0.74102330      -1.75231576      -0.55215299
N        0.64778590      -1.04001355      -2.57921314
N        0.64778590      -1.04001355      -2.57921314
N        0.67769748      -1.06829882      -2.57404995
C       -0.51792228       0.07951033      -2.79060769
C       -0.51792228       0.07951033      -2.79060769
C       -0.53222549       0.09324682      -2.79320145
N        1.43354166      -1.08360779      -1.10626209
N        1.38040066      -1.14168215      -1.08193684
N        1.24274623      -1.25739098      -1.03400552
C        1.72424436      -2.06419444      -2.44983459
C        1.72424436      -2.06419444      -2.44983459
C        1.72424436      -2.06419444      -2.44983459
C        1.70980930      -2.05045795      -2.45154810
