20
Properties=species:S:1:pos:R:3 pbc="F F F"
C        0.00000000       0.00000000       0.00000000
H       -1.25096548       1.16614258       0.26094687
C       -0.13598037       0.08782804       0.01816438
C       -2.48336267       1.98651171       0.42914158
C       -1.27803385       0.86081326       0.16668719
C       -0.50931329       0.33477801       0.07204416
N        1.23104894      -0.78787804      -0.15705010
C       -0.97871232       1.03398812       0.18723793
N        0.72863990      -0.43032548      -0.08002313
N        0.72863990      -0.43032548      -0.08002313
O        0.67249984      -0.48082113      -0.07385753
H       -0.46699327      -1.52906108       0.06188720
H       -0.46699327      -1.52906108       0.06188720
H       -0.46699327      -1.52906108       0.06188720
H       -0.46699327      -1.52906108       0.06188720
H       -0.46699327      -1.52906108       0.06188720
H       -0.46699327      -1.52906108       0.06188720
H       -0.46699327      -1.52906108       0.06188720
H       -0.46699327      -1.52906108       0.06188720
H       -0.48166364      -1.54254246       0.06362843
