9
Properties=species:S:1:pos:R:3 pbc="F F F"
C        0.00000000       0.00000000       0.00000000
H       -0.74630678       1.14372575       1.06198609
C       -0.06592113       0.06541121       0.14590168
C       -1.38535714       1.83505356       2.36804032
C       -2.02873802       3.37583184       2.39903021
C       -2.02873802       3.37583184       2.39903021
C       -2.02873802       3.37583184       2.39903021
C       -2.02873802       3.37583184       2.39903021
C       -2.02809715       3.37583184       2.41028547
