17
Properties=species:S:1:pos:R:3 pbc="F F F"
C        0.00000000       0.00000000       0.00000000
H        0.81057745       1.02658319      -1.13224900
C        0.06600326       0.09494406      -0.11119306
O       -0.00686675       0.07120806      -0.12669408
C        0.93560755       0.00027139       0.72482389
C        0.95010555       0.00027139       0.70947689
C        0.96624225       0.04231093       0.69558972
C        0.03943110      -0.56905067      -0.51667219
C        0.03943110      -0.56905067      -0.51667219
C        0.03437728      -0.60285693      -0.52347690
C        2.18691158      -0.69964433       1.50780416
C        2.18691158      -0.69964433       1.50780416
C        2.18691158      -0.69964433       1.50780416
C        2.18691158      -0.69964433       1.50780416
C        2.18691158      -0.69964433       1.50780416
C        2.18691158      -0.69964433       1.50780416
C        2.18775225      -0.70823222       1.53938651
