16
Properties=species:S:1:pos:R:3 pbc="F F F"
C        0.00000000       0.00000000       0.00000000
H        0.62303674       0.34396240      -1.57683599
C        0.04724896       0.00508007      -0.15608811
C        1.07187176       0.40877509      -2.99614716
C        0.45714599       0.07674202      -1.47932041
C        0.18109259       0.02389079      -0.58732164
N       -0.43080094      -0.03837338       1.40493274
C        0.55692935       0.34831598      -1.27724540
N       -0.23491831       0.00739698       0.81685889
N       -0.23491831       0.00739698       0.81685889
O       -0.25669762      -0.05052990       0.78768831
H       -0.76879930      -1.37998617       0.14825094
H       -0.76879930      -1.37998617       0.14825094
H       -0.76879930      -1.37998617       0.14825094
H       -0.76879930      -1.37998617       0.14825094
H       -0.75701630      -1.37998617       0.13900995
