14
Properties=species:S:1:pos:R:3 pbc="F F F"
C        0.00000000       0.00000000       0.00000000
H        0.79179925      -1.53210127       0.13644245
C        0.10056686      -0.12921762      -0.00144531
C        1.71406341      -2.72772264       0.13240705
C        1.01657677      -1.30696785      -0.01946718
H        1.69224548      -0.44580615      -0.53519130
C        0.07333016      -0.20664072       0.02596641
C       -0.86339027       0.92535627       0.07108565
C       -0.86403638       0.92535627       0.05468526
C        0.44218773      -0.62404847      -1.53797877
C        1.28639078      -0.00011855       1.13857758
C        0.41524464      -0.62404847      -1.54372203
C        0.44218773      -0.62404847      -1.53797877
C        0.40965280      -0.70552522      -1.51631582
