9
Properties=species:S:1:pos:R:3 pbc="F F F"
C        0.00000000       0.00000000       0.00000000
H        0.98383123      -0.25500599       1.39998031
C        0.08816922       0.05714488       0.14888120
C        1.19834864      -0.16673088      -0.03134358
C        0.74911588       0.49701732       1.28982830
C        0.74911588       0.49701732       1.28982830
C        0.74911588       0.49701732       1.28982830
C       -0.00360262      -0.47749871      -1.20728302
C        0.75862592       0.50334644       1.30624473
