27
Properties=species:S:1:pos:R:3 pbc="F F F"
C        0.00000000       0.00000000       0.00000000
H       -0.40637362      -0.43198124       1.62516141
C       -0.07499513      -0.06647009       0.13469589
C       -1.08938789      -1.03121340       2.90551662
C       -0.80568469      -0.68801409       1.37914050
C       -0.28183424      -0.25451535       0.52722567
C        0.31070256       0.28238666      -0.56049436
C       -0.92679477      -0.61950219       0.94353127
C       -0.41958806      -0.91841012       1.03983414
C       -0.83972514      -0.20276786       1.16642809
C       -0.32575378      -0.82747585       1.15355396
H        0.01631486       0.48405659       0.82407308
C       -0.85069472      -1.93285036       0.80882907
N        0.40850729       0.33804953      -0.66433740
C        0.40863794       0.36819077      -0.27799737
C       -0.12531793       0.13368872       0.79790914
C       -0.15202016       0.16081147       0.79144192
C        0.07144675      -1.47249854      -0.90528458
C        0.03972097      -1.47249854      -0.90723038
C       -0.03514430      -1.53210127      -0.80270010
C        1.33645952      -0.89655292      -1.89700437
C        1.59621167      -1.14046550      -1.50004745
C        1.58556926      -1.14046550      -1.52664125
C        1.59621167      -1.14046550      -1.50004745
C       -0.82671767      -2.32223916       0.32570183
C       -0.84816247      -2.32223916       0.31034946
C       -0.76081771      -2.32223916       0.36947465
