9
Properties=species:S:1:pos:R:3 pbc="F F F"
C        0.00000000       0.00000000       0.00000000
H        1.61661279       0.04516050       0.61434549
C        0.15533412       0.11345306       0.04434705
C        0.29852843       0.03271618       1.16877937
C        1.25888574       0.89884257       0.35649326
C        1.25888574       0.89884257       0.35649326
C       -0.97210288      -0.78115034       0.36428291
C        1.25888574       0.89884257       0.35649326
C        1.27476418       0.91014314       0.36098459
