12
Properties=species:S:1:pos:R:3 pbc="F F F"
C        0.00000000       0.00000000       0.00000000
H       -0.15177394      -1.09785926      -1.32836998
C       -0.04882374      -0.05991161      -0.15492904
C       -0.57245612      -1.73816466      -2.74439716
C       -0.13577399      -3.26749945      -3.25365233
C       -0.13577399      -3.26749945      -3.25365233
C       -0.13577399      -3.26749945      -3.25365233
C       -0.13577399      -3.26749945      -3.25365233
C       -0.13577399      -3.26749945      -3.25365233
C       -0.13577399      -3.26749945      -3.25365233
C       -0.13577399      -3.26749945      -3.25365233
C       -0.14475343      -3.26749945      -3.26121688
