17
Properties=species:S:1:pos:R:3 pbc="F F F"
C        0.00000000       0.00000000       0.00000000
H       -1.04358315      -0.01505502       1.37971163
C       -0.08559519      -0.00139237       0.13593924
O        0.01234269      -0.00121832       0.19104576
H       -0.34357440      -0.39503479       0.64405286
H        0.02991652      -0.04463842       1.70915449
H        0.02991652      -0.04463842       1.70915449
H        0.05982388      -0.04463842       1.70836937
H       -0.29189396      -0.42020020       0.65355152
H       -0.08761448      -0.04359424       1.66712940
C        0.04492798       1.54521966       1.72410035
C        0.04971802       1.54521966       1.71667945
C       -0.55468976       0.02186719       1.09571147
C       -0.56533605       0.02186719       1.10603666
H        0.23126148       0.13666645       0.50936806
C        0.17895916       1.53739882       1.65400302
C       -0.29621083      -0.03724144       0.92424303
