9
Properties=species:S:1:pos:R:3 pbc="F F F"
C        0.00000000       0.00000000       0.00000000
H        0.60305703       0.54746705      -1.52626956
C       -0.03156191       0.07662800      -0.16963148
C        0.28609264      -0.73666412      -0.93209893
C       -0.26282132       0.65155053      -1.41385067
C       -0.26282132       0.65155053      -1.41385067
C       -0.26282132       0.65155053      -1.41385067
C        0.34528321      -0.98872209       0.75818509
C       -0.26614881       0.65982282      -1.43175304
