11
Properties=species:S:1:pos:R:3 pbc="F F F"
C        0.00000000       0.00000000       0.00000000
H        0.57231915       1.18820632       1.11960387
C        0.06388164       0.15025866       0.05703461
C        1.14997363       2.55856633       1.73647189
C        1.37985718       2.83343816       3.36757469
C        1.37985718       2.83343816       3.36757469
C        1.37985718       2.83343816       3.36757469
C        1.37985718       2.83343816       3.36757469
C        1.37985718       2.83343816       3.36757469
C        1.37985718       2.83343816       3.36757469
C        1.40836787       2.83343816       3.36330175
