14
Properties=species:S:1:pos:R:3 pbc="F F F"
C        0.00000000       0.00000000       0.00000000
H       -1.06435573       0.90167105       1.02324617
C       -0.11692536       0.06019592       0.09631962
C       -2.12150121       1.47036910       1.90592599
C       -1.10274267       0.59996986       0.90921479
C       -0.43687260       0.23112810       0.36481148
N        1.05792689      -0.53733253      -0.86773407
C       -0.85984308       0.82559294       0.80093920
N        0.63712615      -0.28297919      -0.48630536
N        0.62456053      -0.29688588      -0.49424982
O        0.59835511      -0.35157144      -0.49078354
C        0.10526237      -1.02152908      -0.74556994
C        0.09960747      -1.01176786      -0.75965381
C        0.08563530      -0.98129672      -0.80297625
