22
Properties=species:S:1:pos:R:3 pbc="F F F"
C        0.00000000       0.00000000       0.00000000
H        0.62911803       0.62911803       0.62911803
H       -0.62911803      -0.62911803       0.62911803
H        0.62911803      -0.62911803      -0.62911803
N       -0.85313833       0.86316049      -0.86441129
C       -0.66801345       0.65237516      -2.26662254
O       -1.06380081      -0.29269832      -2.91027403
N        0.07042903       1.70736551      -2.73416543
H        0.39175570       1.71615481      -3.69164705
C        0.49713400       2.63394141      -1.73202848
H        0.49987569       3.67794394      -2.04531837
C       -0.49200949       2.22545433      -0.62225473
H        1.49935973       2.37552261      -1.33095193
H       -0.23486045       2.47921681       0.40613151
O       -0.83468652       2.92757702       0.42926550
C       -1.37309980       3.83330202      -0.44633240
H       -0.11442141       3.20041060       0.79890847
H       -0.48874980       3.54776669       0.24538220
C        0.34727100       0.95613062      -0.03819755
C        0.36884302       2.07471228       1.93387794
N       -0.37071449       3.08965588       1.95461631
N        0.29941794       1.15690720      -0.46274191
