21
Properties=species:S:1:pos:R:3 pbc="F F F"
C        0.00000000       0.00000000       0.00000000
H        1.03981853       0.32688832      -0.00454976
C       -0.97152346       1.05604887       0.47010726
H       -1.87884712       0.63238782       0.94903761
O       -0.77655715       2.30927849       0.23451738
N       -2.06152081       0.50594312       0.99754250
C       -3.02751493      -0.15494627       1.27394545
C       -3.40940714      -0.41353089       1.35344481
H       -0.72100508       1.41440547       0.68098152
C       -3.40940714      -0.41353089       1.35344481
H       -2.71608996       0.05446509       1.20247841
C       -2.28819990       0.34608465       1.09935713
C       -3.48424959      -0.47960085       1.45431566
N       -1.84383893       0.65441114       0.95029527
C       -1.02901149       1.17828751       0.61547446
C       -1.02667952       1.16786361       0.67526400
C       -2.69925284      -0.10187960       2.25742698
C       -2.69925284      -0.10187960       2.25742698
C       -2.69925284      -0.10187960       2.25742698
C       -2.69925284      -0.10187960       2.25742698
C       -2.66950941      -0.12864584       2.26044059
