17
Properties=species:S:1:pos:R:3 pbc="F F F"
C        0.00000000       0.00000000       0.00000000
H        1.53991079      -0.12127488       0.12831470
N        1.06325698      -0.68053931      -1.21366966
H        0.64939088      -0.30116203      -0.87435240
H        0.41342986       0.02582467      -0.89922702
C        1.27469373      -0.85345590      -1.40320015
C        2.32037687      -1.58772326      -2.53963995
C        2.30032778      -1.58772326      -2.55776620
C        1.41655183       1.01881647      -1.59907174
C        1.40375078       1.01881647      -1.61238694
C        2.33843780       1.07753932      -0.61460418
C        0.32990098       1.19153893      -2.66220617
C        2.32533073       1.05353522      -0.62860084
C        2.80545092       1.85915112      -0.13306367
C        2.80545092       1.85915112      -0.13306367
C        2.80545092       1.85915112      -0.13306367
C        2.79590964       1.87070751      -0.14290163
