23
Properties=species:S:1:pos:R:3 pbc="F F F"
C        0.00000000       0.00000000       0.00000000
H       -1.43458617       0.85194206      -0.64826959
H       -0.52839613       1.35590744      -0.85930747
C       -0.73207021      -0.72446412       0.93344700
H       -1.60359931      -0.38585722       1.45371795
C       -0.01037812      -2.24755025       1.05780864
H       -1.54220760      -2.26190901       1.67082536
N        0.35733250       0.81562591      -0.81924766
C       -1.90423560      -3.36935663       2.66248751
H       -2.20595741      -2.36076641       2.31062198
H       -1.08180165      -3.61380672       2.05722237
N       -0.20223498      -2.80456305       0.91789949
C        0.81388015      -2.21144652       0.96728420
C        0.67624491      -3.83118749       0.43663150
C        0.99607158      -3.81112766       0.39115644
C        1.46746147      -1.28878736       1.17711926
C        1.46746147      -1.28878736       1.17711926
C        1.46746147      -1.28878736       1.17711926
C        1.46746147      -1.28878736       1.17711926
C        1.46746147      -1.28878736       1.17711926
C        1.46746147      -1.28878736       1.17711926
C        1.46746147      -1.28878736       1.17711926
C        1.46368909      -1.28878736       1.18852544
