27
Properties=species:S:1:pos:R:3 pbc="F F F"
C        0.00000000       0.00000000       0.00000000
H        0.95175505       0.47662982      -0.31477839
H       -0.93445730      -0.48510346       0.28206995
C        0.86132407       0.19915417      -1.24874187
C        0.71476579      -0.43613330      -0.70337009
N        0.94436437       0.57258677      -1.15931225
O        1.14173281       1.45387256      -0.99744308
O        1.11353374       1.26950955      -0.98868668
C        1.14062369       2.34312725      -1.26924002
C        1.14062369       2.34312725      -1.26924002
C        1.20459414       2.09196687      -1.05327606
C        1.74703956       1.55480456       0.13724422
C        0.97822940       2.10842896      -1.51447558
H        1.50649500       1.45501971      -0.20985270
H        1.50649500       1.45501971      -0.20985270
C        1.26541400       3.61819124      -1.42003191
C        1.27061486       3.61819124      -1.41557229
C        0.59010428       2.72999501      -2.36985826
C        0.58717561       2.70851874      -2.37571335
H        1.07891965       1.22644603      -0.00022984
H        0.95894676       1.17488468      -0.01541972
H        0.89326847       1.10656154      -0.03735566
C        1.95027399       1.78892112       0.81230462
C        0.02604371       0.77550340      -0.99433994
C        1.94192076       1.81130469       0.80532992
C        1.95027399       1.78892112       0.81230462
C        1.89782381       2.08236384       0.56758106
