14
Properties=species:S:1:pos:R:3 pbc="F F F"
C        0.00000000       0.00000000       0.00000000
N       -1.62247694       0.09923338      -0.12090818
H        0.28148136      -0.44145283       0.97876805
C       -1.38256121       0.01244433       0.36505806
C       -0.72558075      -0.19988179       1.45473373
C       -0.99843401      -0.12955213       1.09988093
H       -1.71907258      -0.19091840       1.18308496
C       -0.73166215       1.38439918       0.75981379
C       -0.88610739       1.40762484       0.83582324
C        0.50624061       1.22748137       0.14738244
C        0.50624061       1.22748137       0.14738244
C        0.50624061       1.22748137       0.14738244
C        0.50624061       1.22748137       0.14738244
C        0.52405214       1.22522354       0.13857049
