21
Properties=species:S:1:pos:R:3 pbc="F F F"
C        0.00000000       0.00000000       0.00000000
H       -1.02149677      -0.51956940       0.38818914
H        0.96338075       0.52965200      -0.33743945
C        0.02248573       0.26965362       0.62509865
C       -0.04737600      -0.35157144      -0.77243310
C       -0.01918053      -0.41837633      -0.96165138
N        0.55494535       0.82104766       0.91586316
N        0.53307390       0.82104766       0.90852320
C        1.31193948       0.75610691       1.24999237
C        0.96183926       2.38395572       1.21832287
C        1.31935167       0.85802138       1.28574920
C        1.15579581       1.33041000      -0.39288568
C        1.15579581       1.33041000      -0.39288568
C        1.13292432       1.33041000      -0.40358484
O        2.92067194       1.01381779       1.02421832
O        2.29157782       1.00689781       1.05615926
H        1.70451856       1.30477142       0.51570994
C        2.74410248       1.31518090       0.34165245
C        2.74410248       1.31518090       0.34165245
C        2.74410248       1.31518090       0.34165245
C        2.73793888       1.28524947       0.30545557
