29
Properties=species:S:1:pos:R:3 pbc="F F F"
C        0.00000000       0.00000000       0.00000000
C        0.89154041      -1.11690497      -0.05076668
H        1.82715905      -1.10846376      -0.30659100
O       -0.03945483       1.02063966      -0.13280599
O        0.02415035       1.62119591      -0.30600327
N        0.40808898       0.76231354      -0.66365707
O        0.77043194       0.21561800      -1.03732455
H        0.12355721       1.78621840       0.50132918
H       -0.68484032       1.82345319      -0.64144945
H       -1.64825594       2.05817127      -0.57914442
H        0.53742236       2.26214290       0.28207701
H       -0.59539604       1.98168564      -0.68324226
C       -0.93076706       1.22891879      -0.47499186
C       -0.22328815       2.51414561      -0.82148647
C        0.19602937       3.05061865      -0.91460019
C       -1.01247156       1.25820339      -0.52474523
C       -1.79026783       2.08211160      -1.37688899
C        0.08873725       0.77136540       0.20864153
C       -1.82997632       1.94759631      -1.45224476
C       -0.16339430       1.71477675      -1.41415524
C       -1.88002467       1.94759631      -1.40370631
C       -1.89020503       1.01763296      -2.13385415
C       -1.86365247       1.01763296      -2.13688803
C       -2.63693237       1.05792379      -1.32124043
C       -1.83586895       1.00450575      -2.12038374
C       -3.34708452       1.56509995      -2.83874726
C       -3.33824682       1.59357858      -2.83456588
C       -3.34708452       1.56509995      -2.83874726
C       -3.33210897       1.70566297      -2.73950481
