30
Properties=species:S:1:pos:R:3 pbc="F F F"
C        0.00000000       0.00000000       0.00000000
H        0.80332875      -0.73383576      -0.21965256
O        0.34202141       0.75573593       1.18927813
C       -0.24246857       0.83059174      -1.18837047
C       -0.39805686       1.47166443      -2.22650194
C       -0.53244960       2.14888191      -3.24444771
C       -0.77541697       3.14297056      -4.06228209
C       -0.84013522       4.38655424      -3.13934731
C       -1.61728334       4.06834126      -3.25293183
H       -0.35697746       3.83022618      -2.80295849
N       -0.94294775       2.73800325      -2.78184700
O       -1.37662888       2.88987732      -2.56643391
O       -0.66275001       2.59299135      -2.91961336
C       -0.65960121       2.66866970      -2.92117119
O       -0.10486960       2.51217794      -3.21489143
C       -2.01708078       1.40578926      -3.03550196
C       -2.02529979       1.40578926      -2.99775577
C       -0.39079529       3.32101750      -1.74680078
C       -0.39079529       3.32101750      -1.74680078
C       -0.38610315       3.30051231      -1.73800492
C       -1.55513668       3.55158424      -3.60610962
C       -1.55513668       3.55158424      -3.60610962
C       -1.54061747       3.55158424      -3.61669755
C       -0.53391266       4.71178675      -3.61123991
C       -0.79055238       4.88474131      -2.42315817
C       -0.79055238       4.88474131      -2.42315817
C       -0.77664459       4.89817762      -2.39962721
C       -0.50071454       4.63085032      -3.64402795
C       -0.50071454       4.63085032      -3.64402795
C       -0.52676237       4.67168379      -3.65646648
