31
Properties=species:S:1:pos:R:3 pbc="F F F"
C        0.00000000       0.00000000       0.00000000
H       -1.22137856      -0.22239424      -1.52959812
H       -1.40083671      -0.66030037       0.77107489
C       -0.01496959      -0.75588101       1.50260377
H        0.94480270       0.44940692      -0.42694315
C       -0.80922717      -0.67431110      -0.72622228
O       -0.37642393      -0.96162337       2.68138266
C        0.31213480      -0.27981028       2.81075430
H        0.93945003      -0.43428558       2.25838423
H       -0.39229071      -0.15283006       3.29344273
C        1.08036959      -0.52624816       2.46596026
C        1.82567537      -0.99566054       3.56699133
C        0.64847767      -0.04840115       1.10022616
C        0.46578789      -0.02354413       1.18156326
C        1.59195650      -0.87673700       0.64873666
C        1.64514005      -0.83286101       0.69758761
C        2.24799252       0.75141996       1.04330385
C        2.29639769       0.69924027       1.16814673
C        2.21005082      -0.31728178       1.15272892
C        2.48880458      -0.20577431       0.18388397
C        0.30249572      -1.41682613       0.25352871
C        0.31047273      -1.41682613       0.23009914
C        1.69539309       1.18754077      -0.06147265
C        1.72655368       1.19419909      -0.09728670
C        1.59884393       0.69184327       1.65380478
C        1.81018806       0.64007372       1.57559752
O        1.14401126       0.38165495       2.42502522
O        1.13218760       0.36290649       2.40961981
O        2.86491132       0.19544929       2.49216700
O        2.86491132       0.19544929       2.49216700
O        2.79788399       0.27534923       2.27451229
