28
Properties=species:S:1:pos:R:3 pbc="F F F"
C        0.00000000       0.00000000       0.00000000
H        0.84819514       0.73218942       0.14616056
O       -0.64174855      -0.50407529      -0.15154803
C       -0.51101428      -1.55790472       0.77605665
C       -0.00947094      -1.60324299      -0.67015553
O       -0.93155104      -0.73485661      -0.23727077
C       -0.01052165       0.01661903      -0.01124370
C        0.62725294       0.11854917      -0.47476938
C       -1.31903315       0.98400462       0.41396111
C       -1.32598543       0.95239580       0.48359638
N        2.20371842       0.27625722      -0.93561864
N        2.20611405       0.24764824      -0.93631899
C        2.76239896      -0.35730022      -1.15330827
C        3.30107450      -0.67252284      -1.17474115
C        3.29673409      -0.67252284      -1.19386744
C        2.82980180      -0.29176259      -1.14259410
C        1.63842487      -0.59814048      -1.56737351
C        1.63993657      -0.56841910      -1.56701660
C        1.67971551      -0.29910475      -1.64871454
N        2.02557445      -0.39942014      -2.30540848
N        1.98501575      -0.38494772      -2.32184005
N        1.63993657       0.92088342      -1.52145636
N        1.63494158       0.91986811      -1.49578381
N        1.62974107       0.91840196      -1.47028446
C        1.24254322       2.47709703      -1.61049390
C        1.24254322       2.47709703      -1.61049390
C        1.26861441       2.48397613      -1.60287261
C        1.21027184       2.55447483      -1.55753183
