25
Properties=species:S:1:pos:R:3 pbc="F F F"
C        0.00000000       0.00000000       0.00000000
C        0.60793561       1.16014624      -0.02395245
H       -0.51557761      -0.55503303      -0.83846128
C        0.29258278       1.61706495      -0.55750453
C        1.21986711       0.27203876       0.91503805
C       -0.54980820       0.70440555      -1.19699407
C        0.91526151       1.65727782      -1.12890041
C        1.05935180      -0.04863632       1.03621995
C       -0.84419852      -1.02418780       0.08524475
C       -0.84556109      -1.02418780       0.07045743
C       -0.96504211      -0.43160707       1.43232024
C       -0.98660916      -0.38438755       1.40868723
C       -1.37557566       0.46289051       0.97082376
C       -1.38317919       0.46289051       0.97769821
C       -1.37557566       0.46289051       0.97082376
C       -2.49969530       0.42347294       1.97824585
C       -2.51389408       0.39633787       1.99097061
C       -2.49098873      -0.01495650       1.86949730
C       -2.51481819      -0.08906329       1.79397106
C       -0.75285971       0.48455712       0.42250329
C        0.24497622       0.51875383      -0.42558444
C        0.21497560       0.51823175      -0.42970538
C        0.52527654       0.49961215      -0.74327427
C        0.52527654       0.49961215      -0.74327427
C        0.52488947       0.52971762      -0.74292129
