30
Properties=species:S:1:pos:R:3 pbc="F F F"
C        0.00000000       0.00000000       0.00000000
H       -0.14218700       0.45253062       1.34903574
H        0.62716371      -0.80193579       0.38944072
C       -1.36956048      -0.59923220      -0.47971037
H       -1.78678572       0.02062142      -1.24561107
C       -1.44227660      -2.14393139      -0.58513379
H       -2.29512239      -2.47681761      -1.21278024
C        0.73393756       0.87568641      -0.82620049
C        2.00130749       0.59292471      -0.65323269
H        2.30204487      -0.23668575       0.02011913
H       -0.84665364      -0.10227132      -0.64623344
C       -0.23185383      -0.39886370      -1.24741733
C       -0.35231227      -0.01774719       0.12558603
O        0.98754340       0.04445559      -0.37021199
C       -1.51218247       0.02010410       0.99493438
O        1.29773879       0.05837508      -0.45237058
N        2.36560369       0.10665837      -0.74701226
C        2.64306688       0.11883793      -0.79188251
C       -0.07100564       0.03497005      -0.11043671
C        0.84465021       0.14978662      -0.65363377
C       -1.21410370       0.08499327       0.00499007
C       -1.23339009       0.12651303      -0.01357958
C       -1.23339009       0.12651303      -0.01357958
C       -0.75457215      -1.08497834       0.75004321
C       -0.80420101      -1.05287611       0.82602501
C       -0.87156713      -1.03628659       0.87921321
C       -1.96882343      -0.70802498       1.70163107
C       -1.96882343      -0.70802498       1.70163107
C       -1.95426238      -0.70802498       1.72070801
C       -1.94365656      -0.73194003       1.74298143
