27
Properties=species:S:1:pos:R:3 pbc="F F F"
C        0.00000000       0.00000000       0.00000000
C        1.03475511      -0.85319287       0.69385988
H       -0.63187540       0.84722853       0.16684338
O        1.88880718      -1.74139297       1.00142193
C       -0.19041535      -1.50613260      -0.53610069
H       -1.00447953      -2.06890273      -0.88694084
N        1.17729628      -0.42552000      -0.38580543
O        1.47567344       0.14241517       0.14900920
H        2.45807457      -0.07748491      -0.52228105
H        1.26510108       0.47200266       1.05847657
C        2.68614173      -0.71317279       0.96069431
N        0.28028214      -0.07320283      -0.34154871
C        0.94383675      -0.24195302      -1.10069478
C       -0.53833282       0.13661298       0.61679375
C       -0.76752937       0.66965246       0.81739640
H        0.75632787       0.25253373      -1.33642316
H        0.99761254      -0.10322283      -1.23989999
C        0.51208341      -1.14261067      -0.13399774
C        0.51208341      -1.14261067      -0.13399774
C        0.50575650      -1.12404811      -0.11983174
C        0.97627151      -2.49022603      -1.14935923
C        0.97627151      -2.49022603      -1.14935923
C        0.97627151      -2.49022603      -1.14935923
C        0.97627151      -2.49022603      -1.14935923
C        0.97627151      -2.49022603      -1.14935923
C        0.97627151      -2.49022603      -1.14935923
C        0.97096658      -2.47482467      -1.13775516
