26
Properties=species:S:1:pos:R:3 pbc="F F F"
C        0.00000000       0.00000000       0.00000000
H       -0.91669947       0.77658379       0.88129300
O       -0.20983851       0.04769713       0.08557284
C        0.49328136      -0.61154783      -0.67857212
C        0.66222250      -0.78141022      -0.16935739
C        0.49056590      -0.33521342      -0.82377428
C        0.57635874      -0.12130181      -0.18980527
C       -0.99624443       0.20217243       0.36877406
O       -1.30599558       0.39177710       0.54934883
O       -1.24592173       0.52042329       0.63002926
C       -0.62139487      -0.40938282      -0.19466954
C       -0.63452077      -0.40938282      -0.20653677
N       -0.82751483       1.53908348       1.25620270
C       -0.48023212       0.57524848       0.63273203
O       -1.77301896      -0.33908308       0.07693207
O       -1.78261793      -0.33908308       0.08624148
O       -1.77328408      -0.32413512       0.09569865
N       -0.68901300       0.43138909       0.09116204
N       -3.29130936      -0.13560802       0.76573908
C       -2.74174953      -1.37033963      -0.26267058
C       -2.74787307      -1.37033963      -0.24566662
C       -2.73054099      -1.38815331      -0.23959580
C       -2.99603033      -0.66947585      -1.54079366
C       -2.99849057      -0.69269729      -1.55285192
C       -2.99849057      -0.69269729      -1.55285192
C       -2.97321749      -0.66947585      -1.54524064
