31
Properties=species:S:1:pos:R:3 pbc="F F F"
C        0.00000000       0.00000000       0.00000000
H        1.00411892       0.02688747       0.22786333
C       -1.31352234      -0.80062276      -0.53903586
C       -1.48690104       0.62213278      -0.24284399
H       -1.19059372      -0.37244529      -0.40258053
C       -1.41451943      -2.06170416      -0.87899446
C       -1.06657231       0.57284194      -0.14519793
C        0.03641236       0.55384022       0.13098779
C        0.05254531       0.49772823       0.13494694
N        0.45153391      -1.06142211       0.21758062
N        0.45490748      -1.08076668       0.22595632
C       -0.38663423       1.80602765      -0.01719101
N        0.46438989      -1.05379772       0.27670181
N        2.01588011      -0.70628142       0.02330923
N        1.28333580      -0.96009856       0.37390298
N        1.28216136      -0.98885697       0.40292501
N       -1.02385378      -1.37787795      -0.30381489
N       -0.99722385      -1.40563095      -0.35321522
N       -0.94374824      -1.48821723      -0.41995025
C       -1.21331620      -2.51268506       0.35150737
C       -1.25000346      -2.51268506       0.33919519
C       -2.31617260      -0.44978213      -0.61632049
C       -2.29965878      -0.42651975      -0.61302632
C       -1.29349804      -2.49968886       0.34259897
C        0.40804291      -2.88610315      -0.12246564
C        0.40804291      -2.88610315      -0.12246564
C        0.40155935      -2.91544580      -0.12057033
C       -2.50841045      -2.01663923       0.89627075
C       -2.50841045      -2.01663923       0.89627075
C       -2.49867821      -2.01663923       0.91885269
C       -2.39230108      -2.37026978      -0.54838759
