19
Properties=species:S:1:pos:R:3 pbc="F F F"
C        0.00000000       0.00000000       0.00000000
O        0.16506714       1.45649695       0.71292835
O        0.16319548       0.87759715       0.47253564
N        1.18148255      -0.61403650       0.52149397
C        1.10598350       0.92684495       1.10871148
C        0.12399910      -0.07283783       0.04334223
C       -1.15374219       0.66156405      -0.40411654
C       -1.15374219       0.66156405      -0.40411654
C       -1.17034280       0.67108291      -0.40993118
C        1.13361263      -0.65204513       0.40823767
C        1.13361263      -0.65204513       0.40823767
C        0.21448946      -0.93679249      -1.02947867
C        0.27411258      -1.02546322      -1.04596841
C        0.38096237      -1.05480576      -1.09648764
C        1.55296993      -1.12813663      -1.60632837
C        1.54970896      -1.15347385      -1.60492301
C       -0.39026207       0.16878021      -0.83390796
C        1.55296993      -1.12813663      -1.60632837
C        1.54793346      -1.07729602      -1.63204336
