31
Properties=species:S:1:pos:R:3 pbc="F F F"
C        0.00000000       0.00000000       0.00000000
C        0.55074662      -1.19138861      -0.86149222
H        1.36336660      -0.83516777      -1.45953465
C        1.11159337      -0.27805543      -1.01387525
C        1.44092309       0.29813302      -1.08822489
H        0.71796477       0.21446738      -0.47408110
N        0.84183443       0.56650299      -0.31326813
C        0.51984119      -0.18626386      -0.54165888
C        0.54857504      -0.76100391       0.06066066
C       -0.03952861      -0.48732644       0.00412914
C        0.89662784      -0.81410819      -0.03218290
C        2.08995152       0.16839850      -1.41227365
C        2.03055406       0.16839850      -1.47626209
N        0.73113251       1.27611685      -0.69752860
N        0.74615109       1.29006958      -0.70579541
C        1.57597613       0.64503622       0.61761642
C        1.44773448       2.22443509      -1.20343065
C        1.52963567       2.11646128      -1.22128320
C        1.61824405      -0.01786411      -0.94425005
N        1.36801684       1.37164605      -1.90900111
N        1.36801684       1.37164605      -1.90900111
N        3.09998298      -0.14226866      -0.38115942
N        3.09998298      -0.14226866      -0.38115942
C        1.10144305       1.33335650      -1.89294195
C        2.94747400       1.55114198      -1.94356096
C        2.95035791       1.52361929      -1.94362402
H        0.02271044       0.40421122      -1.70135307
H        0.00280416       0.42804867      -1.72268009
H       -0.25396144       1.91278410      -1.88770914
H       -0.25396144       1.91278410      -1.88770914
H       -0.09636974       0.50593275      -1.73519230
