19
Properties=species:S:1:pos:R:3 pbc="F F F"
C        0.00000000       0.00000000       0.00000000
C       -1.02604568       0.78471088       0.85671264
H       -1.98397613       1.14093173       0.53989196
C       -1.78456950       0.99196208       0.59102762
C       -0.67169416       0.14339900       0.88487673
C       -3.19408512       1.34350467       0.17898265
C       -3.07148743       1.71063948       0.26324311
C       -2.98244166       1.86670852       0.30815175
O       -2.52088237       2.86002135       0.56631738
O       -2.52088237       2.86002135       0.56631738
O       -2.50344157       2.84890890       0.57591748
C       -1.85977697       2.45546770       0.91528130
C       -1.85556412       2.42969584       0.87400460
N       -3.43330288       3.44452524       0.07443991
N       -3.43330288       3.44452524       0.07443991
N       -3.43330288       3.44452524       0.07443991
C       -1.44554460       2.14618754       1.13393354
C       -1.88363385       2.29807496       0.54121000
N       -3.42421007       3.46247697       0.07934165
