10
Properties=species:S:1:pos:R:3 pbc="F F F"
C        0.00000000       0.00000000       0.00000000
N        0.68179625       0.14788654      -1.10877502
C        1.15522707       0.17372985      -1.97785211
C        1.09379184       0.15563162      -1.89763451
N       -0.57199913      -0.01174814       1.22277439
N       -0.57199913      -0.01174814       1.22277439
N       -0.57199913      -0.01174814       1.22277439
N       -0.57199913      -0.01174814       1.22277439
N       -0.57199913      -0.01174814       1.22277439
N       -0.60210162      -0.01192219       1.23054051
