17
Properties=species:S:1:pos:R:3 pbc="F F F"
C        0.00000000       0.00000000       0.00000000
H       -0.67728424       1.03794765       0.96376777
C        0.00196075       0.42536682       0.17163777
C       -0.01327084      -1.03346872      -0.40841752
C       -0.00311700      -1.03346872      -0.40859526
C        1.36959875      -0.99457324       0.14498729
C        1.33864939      -0.99457324       0.21679986
C        0.91862917      -0.98560983       1.15722632
C        0.91862917      -0.98560983       1.15722632
C        0.75551468      -1.00701761       1.52244031
C        0.95179814      -1.00353658       1.17134953
C        1.31339133      -1.38530934       2.04029059
C        0.18101788      -1.21995485       3.33770537
C        0.18101788      -1.21995485       3.33770537
C        1.29951048      -1.37200451       2.06406093
C        0.27296782      -1.24995089       3.41582465
C        0.22909629      -1.19000876       3.37410426
