16
Properties=species:S:1:pos:R:3 pbc="F F F"
C        0.00000000       0.00000000       0.00000000
H       -1.29668808      -0.56871843       0.20014383
C       -2.54768348      -1.16557908       0.30438456
H       -3.23861504       0.33948243       0.08920911
H       -2.58941150      -1.77122688      -0.64868867
H        0.67693871       0.05002322       0.92830527
O        0.40970635       0.38923967      -1.09248900
N       -3.69553852      -0.38925666       0.56486565
C       -1.20341003      -0.50762987       0.25102699
C       -3.40568709      -3.03850007      -1.36744440
C       -3.40568709      -3.03850007      -1.36744440
C       -3.40568709      -3.03850007      -1.36744440
C       -3.40568709      -3.03850007      -1.36744440
C       -3.40568709      -3.03850007      -1.36744440
C       -3.40568709      -3.03850007      -1.36744440
C       -3.42211652      -3.01937938      -1.38191104
