5
Properties=species:S:1:pos:R:3 pbc="F F F"
C        0.00000000       0.00000000       0.00000000
H        0.50874346      -0.66030037      -1.51594198
C        1.38424718      -1.23841286      -1.47377121
C        2.41541433      -1.80074930      -0.37260389
C        0.68648738      -0.79355639      -1.53806603
