31
Properties=species:S:1:pos:R:3 pbc="F F F"
C        0.00000000       0.00000000       0.00000000
N       -1.06408405      -0.46422607       0.51489609
C        1.01880002       1.02472544       0.56078690
H        0.49858224       1.66775107       1.30105090
C        1.22092569       1.67311358      -0.78785521
H        1.64431834       2.67348409      -1.01610231
H       -1.20121276      -0.15533158       1.48787057
O        0.88864779       0.93063062      -1.62881279
N        2.27800179       0.41671389       1.01425195
H        2.92904329       1.15105271       1.38760304
H        2.06151247      -0.22097164       1.81985044
N        0.33376876      -0.26351660      -1.38623786
C       -0.89416933      -0.35422689      -2.22530746
H       -1.43388724      -1.23993826      -1.89016676
H       -1.52604556       0.52029353      -2.07024074
H       -0.66650069      -0.39990026      -3.24930954
H       -0.02448070      -0.85192400       0.54674745
H        1.58066845       0.87566322      -1.32617795
C       -0.31029630       0.96587145      -2.24832034
C        0.07985079       0.97611421      -2.00437665
C        1.29968596       0.38992584      -2.51126599
C        0.18869251       0.67757928      -3.57888269
H        0.67014349       0.99745768      -1.53991425
O        2.88380337       0.61122966      -1.35469162
O        2.88380337       0.61122966      -1.35469162
O        2.88310480       0.61122966      -1.37749350
C        2.94644499       0.62680680       0.43414307
C        2.94644499       0.62680680       0.43414307
C        2.94644499       0.62680680       0.43414307
C        2.94644499       0.62680680       0.43414307
C        2.83178544       0.63341838      -2.20280814
