25
Properties=species:S:1:pos:R:3 pbc="F F F"
C        0.00000000       0.00000000       0.00000000
C        0.75635588      -0.19604510       1.07628560
H        1.26275992       0.51134616       1.69922376
O       -0.42587051      -1.22516012      -0.55291516
N       -0.37635675       1.17842174      -0.58870709
C        0.07690325      -2.23414564       0.18982643
H        0.17725775       1.92967975      -0.25821957
O       -0.05065708      -3.36407042       0.01807681
C       -0.90607703       1.24410439      -2.00121546
H       -0.85634339       2.31265450      -2.29757118
H       -0.33734471       0.71854210      -2.73961043
N       -1.30757177       1.27986729      -0.69185638
O        0.82303512      -1.71143436       1.29207802
C       -1.59383655       2.99339151      -0.90253115
H       -1.49573040       2.67250109      -1.91855478
C       -2.21727848       3.75766826      -0.81136143
H       -1.32745707       2.41031599      -2.92127228
C       -2.66976976       3.19788527      -2.21273303
C       -2.73664355       3.19788527      -2.35733557
C       -3.32795358       3.18596315      -3.59309769
C       -3.32795358       3.18596315      -3.59309769
C       -3.32795358       3.18596315      -3.59309769
C       -3.32795358       3.18596315      -3.59309769
C       -3.32795358       3.18596315      -3.59309769
C       -3.31932139       3.18613720      -3.57505751
