21
Properties=species:S:1:pos:R:3 pbc="F F F"
C        0.00000000       0.00000000       0.00000000
H        0.62911803       0.62911803       0.62911803
H       -0.62911803      -0.62911803       0.62911803
H        0.62911803      -0.62911803      -0.62911803
N       -0.88286746       0.86316049      -0.83402473
C       -0.79893434       0.63437498      -2.20249486
N        0.08807105      -0.17556900      -2.54848790
O       -1.63720322       1.30729103      -3.05184031
C       -2.82146978       1.83782148      -2.55369520
H       -2.93474984       1.69594038      -1.47892237
O       -3.52455974       2.41250181      -3.29146624
H        0.16311708      -0.35185254      -3.49937797
C       -1.83963835       1.74377370      -0.19245791
O       -2.83989763       1.24138021       0.14810157
N       -1.55914748       3.06261444       0.05019842
H       -2.24274850       3.51348042       0.70739609
C       -0.43698931       3.85930443      -0.25663102
H       -0.45996875       4.85749340       0.18062213
H       -0.18184799       3.86878991      -1.31630647
N        0.71931815       3.48884845      -0.93325037
H        0.74153137       2.46460056      -1.16329873
