16
Properties=species:S:1:pos:R:3 pbc="F F F"
C        0.00000000       0.00000000       0.00000000
H        0.62911803       0.62911803       0.62911803
H       -0.62911803      -0.62911803       0.62911803
H        0.62911803      -0.62911803      -0.62911803
N       -0.85515189       0.81929117      -0.83664531
C       -0.56053329       1.56429148      -1.97254705
N       -1.68077481       2.11439729      -2.43226552
C       -2.74281764       1.69154179      -1.60682225
H       -3.79550028       1.98737359      -1.79772019
C        0.76642716       1.73249829      -2.62903810
H        0.64111435       2.45172858      -3.46516228
O        1.77925897       1.23869264      -2.39919758
N       -2.38072848       0.92764509      -0.71337271
H       -1.74390554       2.72779012      -3.23218012
C       -1.97934675       0.87279427      -0.34043750
C       -2.54963779       1.07068253      -0.93885899
