22
Properties=species:S:1:pos:R:3 pbc="F F F"
C        1.38166153       0.00000000       0.00000000
C        0.69092011       1.19713211       0.00000000
C       -0.69092011       1.19713211       0.00000000
C       -1.38166153       0.00000000       0.00000000
C       -0.69092011      -1.19713211       0.00000000
C        0.69092011      -1.19713211       0.00000000
H        2.47404242       0.00000000       0.00000000
H        1.23700202       2.14272499       0.00000000
H       -1.23700202       2.14272499       0.00000000
H       -2.47404242       0.00000000       0.00000000
H       -1.23700202      -2.14272499       0.00000000
C        1.44822133      -2.52656126      -0.00331359
H        0.95657486      -3.21987343       0.64668757
C        2.04023051      -3.02926540      -1.29826975
H        1.95830798      -4.06419420      -1.55732620
C        2.98174524      -2.45537972      -0.18063724
H        3.51834106      -1.52762032      -0.37919831
H        3.62662816      -3.11735797       0.39729881
C        1.93474758      -1.99216032      -2.39069080
O        2.00660396      -2.18802714      -3.56225896
H        1.77452970      -0.97565615      -1.97457933
C        2.90214729      -2.69702578      -0.37363619
