26
Properties=species:S:1:pos:R:3 pbc="F F F"
C        0.00000000       0.00000000       0.00000000
H        0.93460631       0.46804190      -0.30910671
C       -0.79678166      -0.79743171      -1.03447545
H       -0.34373960      -0.82588542      -2.02545619
H       -1.04538846      -1.81025410      -0.71748215
C       -0.07600182      -0.42770621       1.44616354
H        0.72506785      -0.91280967       2.00389242
C       -1.50839233      -0.49251890       1.85132408
C       -2.33605433      -0.02798000       0.91961694
H       -3.38877726       0.18873625       1.10102177
C       -1.74049711       0.44986701      -0.38310015
H       -2.29594302       1.26651716      -0.88971794
O       -1.93032789       1.86687136      -0.41410372
C       -1.46768439       1.54496193       0.05925763
C       -0.60627931       0.44710267       1.08179533
C       -0.58851582       0.44710267       1.06656325
C       -1.70356345       0.77303410       2.03120589
C       -1.64403152       1.02343428       1.97970402
C        0.43978840       0.41186181       0.19257969
C        0.43978840       0.41186181       0.19257969
C        0.44009990       0.43535453       0.19231498
C        0.41771781      -1.33798194       0.20009409
C        0.41746834      -1.33798194       0.19931710
C        0.41746834      -1.33798194       0.19931710
H        0.24278210       0.89233887      -0.47186184
C        0.45507529      -1.32937419       0.36682177
