7
Properties=species:S:1:pos:R:3 pbc="F F F"
C        0.00000000       0.00000000       0.00000000
H        0.50874346      -0.66030037      -1.51594198
C       -0.10256582      -0.15093803      -0.20913339
C        0.12655053      -1.12829638      -2.11377811
C        0.12655053      -1.12829638      -2.11377811
C        0.12655053      -1.12829638      -2.11377811
C        0.11614624      -1.12829638      -2.10699773
