16
Properties=species:S:1:pos:R:3 pbc="F F F"
C        0.00000000       0.00000000       0.00000000
H       -0.20168304       1.33221400      -1.08509290
C        0.04951489       0.12158275      -0.15033656
C        0.12627801       1.11553264       0.33137763
C       -0.90293908       1.63768339       1.51060116
C       -0.92341900       1.63768339       1.49240828
C        0.83122253       1.09282184       0.84072757
C        0.82241118       1.10796165       0.85314482
C        0.13216019       1.62558711       2.43824410
C        0.13216019       1.62558711       2.43824410
C        0.14705372       1.62541306       2.45159149
C        1.25628006       1.58616960       3.44566607
C        1.25312996       1.58564746       3.47878695
C       -0.62881130       1.63455045       1.74416816
O       -2.12623310       1.62349856       0.43345320
O        0.08773702       1.64908350       2.36764812
