30
Properties=species:S:1:pos:R:3 pbc="F F F"
C        0.00000000       0.00000000       0.00000000
H       -1.04628491       0.90167105       1.04171658
C        0.07590258       0.18779236       0.24574554
C       -1.19629335       0.37330300       0.36701334
C       -0.20034277      -0.54320812      -0.67806411
C       -0.30028453      -0.77735502      -1.01076555
N       -0.75435299      -1.82896900      -2.53917170
N       -0.75435299      -1.82896900      -2.53917170
N       -0.57214165       0.30361229      -0.40207666
O       -0.10930860      -0.34057570      -0.42015523
H        0.39408350       0.72142684       0.82195741
H        0.17879796       0.48542643       0.58164996
H        0.39408350       0.72142684       0.82195741
C       -0.33076838      -0.80687106      -1.12045813
O        0.08730547       0.81270158       0.02006418
N       -0.16616589      -1.22753239      -0.46679077
O        0.11115117       1.11993110      -0.10644352
O        0.05173564       0.85024059      -0.07588777
C       -0.03490009       2.00547123      -0.79532778
C       -0.03180476       2.01964021      -0.77467477
C       -0.01416581       1.95725036      -0.65267646
H        0.11935938       1.79759431       0.29473084
H        0.12993011       1.76642799       0.36973369
H        0.12993011       1.76642799       0.36973369
H        0.13037175       1.78442669       0.37286747
H        0.18747298       1.42673576       1.19034183
H        0.15850791       1.41247022       1.18582010
H        0.15732314       1.34283650       1.15198660
O       -0.13938805       1.77024186      -1.23459196
H       -0.09273876       2.19008899      -0.63177967
