18
Properties=species:S:1:pos:R:3 pbc="F F F"
C        0.00000000       0.00000000       0.00000000
H        0.57818180      -0.61114752      -0.72408813
O        0.64846247       1.08579302       0.62341642
C       -0.70807892       0.90790313       1.00758815
H       -0.89399415       0.36953747      -0.54434896
C       -1.59878802       1.62044501       0.54734898
C       -3.00388765       2.23088408      -0.11744875
H       -2.05820847       1.94038260       0.34015286
H       -2.09022284       1.89227724       0.32466152
C       -1.65515423       2.59148741       0.53518546
C       -2.53448486       1.25151443       0.10452329
C       -2.16214228       1.58572626       1.75164342
C       -2.16214228       1.58572626       1.75164342
C       -2.14097977       1.58572626       1.76131821
H       -0.74086636       0.55150419       0.25871927
H       -0.74086636       0.55150419       0.25871927
H       -0.75396740       0.55150419       0.25940776
H       -0.76705426       0.55150419       0.26032543
