31
Properties=species:S:1:pos:R:3 pbc="F F F"
C        0.00000000       0.00000000       0.00000000
H        0.26350614      -0.99145162       0.47380102
O       -0.19049597       0.72823453      -0.34969360
C       -1.57415998       0.76451957      -0.47719067
C       -0.69462854       0.34018317      -1.56302166
O       -0.27267644       1.03400052      -0.52210104
C        0.00821376      -0.00679541       0.02739269
C       -0.19014722      -0.07330101      -0.79645789
C       -0.20212494       0.08238812      -0.72885060
C       -0.43614951       0.00860771      -1.68584991
C        0.24657270      -1.43596113      -0.02889547
C       -0.46606517       0.00860771      -1.67781067
C       -0.04795268       0.65082699       0.21246147
C       -0.03031735       0.65082699       0.20981836
C        0.76196575       1.36670148      -0.68345106
C        0.76196575       1.36670148      -0.68345106
C        0.73693460       1.38317013      -0.68642199
C       -0.49835110       2.23119497      -0.75521708
C       -0.49941397       2.23119497      -0.73314875
C       -0.43718624       2.31691432      -0.68869793
H       -0.74035543       1.54568243      -0.64190376
C       -0.95518780       2.83393097       0.32464647
C       -0.93737394       2.83393097       0.33355677
C       -1.30950975       1.32540321      -1.90762019
C       -1.30950975       1.32540321      -1.90762019
C       -1.30950975       1.32540321      -1.90762019
H       -0.62171388       1.51057255      -0.75698018
C       -1.28358173       0.83108199      -0.69240129
C       -0.00506610       2.85471725      -0.22724360
C       -0.01035365       2.87639332      -0.24858779
C       -0.89744031       1.67171586      -1.22063172
