31
Properties=species:S:1:pos:R:3 pbc="F F F"
C        0.00000000       0.00000000       0.00000000
H       -0.93002629      -0.40574095       0.45002735
O        0.74449587       0.92657584       0.79503548
C       -0.34640914       0.30022153      -1.43873739
H       -0.91720462      -0.50171423      -1.90691566
C       -0.63504893       1.73051929      -1.82736742
H       -1.40120506       1.92861116      -2.57694292
C       -0.37773141       2.80519199      -0.79830754
H        0.67275321       3.09569335      -0.78451759
H       -0.99543357       3.70715499      -0.99067736
O        0.52704626       1.04039860      -2.35250187
N       -0.68372911       2.18890810       0.52330410
C       -2.10789323       1.97517467       0.69233888
H       -2.56217790       1.39096570      -0.10792655
H       -2.27481604       1.45639420       1.63632131
H       -2.62720370       2.93153071       0.75397611
C        1.85548246      -0.03887725       1.02678323
H        2.81064439       0.34882069       0.61513370
H       -0.12794060       1.32176030       0.53060007
C        2.06128335      -0.44664526       2.48701239
H        1.10707641      -0.70040786       2.94874048
H        2.69216180      -1.33235657       2.56189179
H        2.52873373       0.35306937       3.02259254
N        1.02368021       0.89608914       1.13225424
N        0.03729731       0.99045217      -0.05965281
C       -0.07591486       1.03144753      -0.19645405
C       -0.88816726       1.33642817      -1.17794847
C       -0.97727805       1.38851881      -1.24761653
C       -1.56985188       1.73181796      -1.71655333
C       -1.56985188       1.73181796      -1.71655333
C       -0.86306518       2.45454502       0.39353251
