25
Properties=species:S:1:pos:R:3 pbc="F F F"
C        0.00000000       0.00000000       0.00000000
H        0.81038153       1.47249854       0.40978843
C        0.22035670       0.04243481       0.31342426
C        1.32785368       1.70436668       1.06960630
C        1.31858468       1.68973780       1.08167863
C        1.73675549       2.23438096      -0.24066579
C        1.78884006       2.18578339      -0.24229121
C        0.34988272       2.53266978      -0.07150061
C        0.36592352       2.58289075      -0.04809485
C        0.03666097       1.64670289      -0.49322826
C        0.02751473       1.65597963      -0.50554293
H        0.39172748       1.68025672       0.34982800
C       -0.73551667       2.39006400      -1.49619997
C       -0.73551667       2.39006400      -1.49619997
C       -0.75273716       2.39006400      -1.48269439
C        0.28823256       2.35586739      -2.27724528
C       -1.89151418       2.32351136      -0.49613106
C       -1.89046323       2.29691863      -0.49704021
C       -1.83142948       2.21734166      -0.44261563
C       -2.51047349       3.88264704      -0.91907585
C       -2.48075175       3.89545774      -0.91407907
C       -2.45800519       3.89545774      -0.94442707
C       -3.42188120       3.48952007      -0.64396358
C       -3.43300128       3.50614858      -0.65813315
C       -3.43916655       3.52289128      -0.65638924
