13
Properties=species:S:1:pos:R:3 pbc="F F F"
C        0.00000000       0.00000000       0.00000000
H       -1.14519942       0.87583858       0.95620179
C       -0.14199603       0.09112769       0.07285053
O       -0.30849606       0.07087708      -0.13010466
O        0.61031985      -0.75782645      -1.12866628
O        0.64470333      -0.75782645      -1.09589899
O        0.63271344      -0.74740249      -1.08375061
C        0.31686404      -1.02191305      -2.02491093
C        0.31686404      -1.02191305      -2.02491093
C        0.31686404      -1.02191305      -2.02491093
C        0.31686404      -1.02191305      -2.02491093
C        0.31686404      -1.02191305      -2.02491093
C        0.31843188      -1.03914917      -2.02023888
