13
Properties=species:S:1:pos:R:3 pbc="F F F"
C        0.00000000       0.00000000       0.00000000
H       -1.05220795      -0.51882261      -1.27144730
C       -0.09610206       0.17250520      -0.17599094
C       -0.64573497      -0.93289518      -0.62320089
C       -0.66991800      -0.93632543      -0.63737655
C        0.59063810      -1.10679007       0.17628074
C        0.54867607      -1.21074617       0.21104527
C        0.61382514      -1.23654699       0.09880847
C        0.45563668       0.10072064       0.78202838
C        0.45563668       0.10072064       0.78202838
C        0.45563668       0.10072064       0.78202838
C        0.45563668       0.10072064       0.78202838
C        0.44145033       0.11843276       0.78816646
