14
Properties=species:S:1:pos:R:3 pbc="F F F"
C        0.00000000       0.00000000       0.00000000
H       -1.65402079       0.46107098      -0.21101032
C       -0.22013652      -0.02943420       0.11437906
C       -0.64372051       0.89053345       0.46645111
C       -0.34218261       2.51172924       0.52386314
C       -0.34122401       2.51172924       0.51857716
C       -0.29493880       1.82548451       1.84032750
C       -0.29493880       1.82548451       1.84032750
C       -0.11118367       2.52382541      -0.85220116
C       -0.15301161       2.50276589      -0.49404079
C       -0.17076243       2.52069259      -0.49717969
C       -0.70699036       3.11829019      -0.97105330
C       -0.70246601       3.11829019      -0.99183166
C       -0.71078479       3.11829019      -0.95012939
