31
Properties=species:S:1:pos:R:3 pbc="F F F"
C        0.00000000       0.00000000       0.00000000
H       -0.65751791      -0.00948554       0.86929828
C        1.50304890       0.19915417       0.20513274
H        1.83617806       0.37856156       1.22735453
H        2.13441563      -0.53558326      -0.29450327
C        0.24148366       1.27352834      -0.81284010
H       -0.28851578       2.22063804      -0.71192950
O        1.64325118       1.41212034      -0.46883655
C       -0.38320920      -1.04480994      -1.07889783
H       -1.46841359      -0.91950148      -1.27569342
C       -0.15770902      -2.42880630      -0.63776129
C        0.00288475      -3.56074476      -0.24149853
C        0.19530688      -4.86107063       0.21041396
N        0.35727373      -5.95558929       0.59080076
O        0.38136026      -0.76447058      -2.22995901
H        0.44027132       0.18228084      -2.28183198
O        0.15680277       0.83867693      -2.19350338
C        0.61374527      -0.37856817      -2.35355473
O        1.18450546       0.75970125      -2.66124630
H        0.25658113       0.05591959      -2.21292949
C       -0.51088917       0.25380787      -1.90579855
C        0.97806609      -0.06848497      -0.80151868
C       -0.15740910      -1.30637407      -2.08001614
C       -0.14138404      -0.06848497      -3.74728441
C        1.12437987       1.03307915      -2.55143046
C        1.12774646       1.89335835      -2.30389643
C        1.05562401       1.31704438      -2.14582586
H        0.96732128       2.41452432      -2.60389996
H        0.96946126       2.41452432      -2.59633422
H        0.83769143       2.38209915      -2.47034645
H        1.20384157       1.89826548      -3.25621486
