22
Properties=species:S:1:pos:R:3 pbc="F F F"
C        0.00000000       0.00000000       0.00000000
H       -0.27892056      -1.20991027       1.20466483
C       -0.17672130      -0.05482876       0.14625108
O       -1.28257942      -1.26080346       1.80381238
O       -1.46349573      -1.01976132       1.67871523
C       -0.40484977      -0.43070996       0.62202024
C       -0.37562197      -0.45645589       0.62629378
C       -1.11725736       0.95729005      -0.12552804
C       -1.18553567       0.93910778      -0.09003717
C        0.38428020      -0.65455627       0.38260245
N       -1.53242755       0.44787526       0.58150631
N       -1.53983724       0.44787526       0.55771351
N       -1.51971614       0.52150285       0.52612549
H       -1.65101540      -0.44875872       1.18985128
H       -1.66487765      -0.43783605       1.20285296
H       -1.66487765      -0.43783605       1.20285296
H       -1.66487765      -0.43783605       1.20285296
C       -1.15917587      -0.86816156       0.67220664
C       -1.15917587      -0.86816156       0.67220664
C       -1.15917587      -0.86816156       0.67220664
C       -1.15917587      -0.86816156       0.67220664
C       -1.14996648      -0.86816156       0.68113816
