31
Properties=species:S:1:pos:R:3 pbc="F F F"
C        0.00000000       0.00000000       0.00000000
H        0.61987066      -0.16066855       0.88206869
C       -0.35192898       1.43129373      -0.41041672
H       -0.01575726       2.20759463       0.30822414
O       -0.96494377       1.76443756      -1.44758928
O        1.13842392      -0.57411319       0.19617264
O       -1.19090986      -0.30498067       0.45256948
C       -1.65150821       0.99775040      -0.41610301
C       -2.90732622       0.81825453      -1.37464333
H       -3.16550851       1.85072136      -1.61012924
C       -2.45636582      -0.63026160      -0.97049832
H       -2.38512993       0.21387583      -1.04019260
H       -1.59450150       1.66936731      -0.75017107
N       -2.30269361       2.26048326      -1.01809907
C       -0.57988787       0.55871421       0.61412728
H       -1.60257137       1.82337117      -0.92291170
C       -1.89935541       1.26481366      -0.06760216
C       -1.87594628       0.94588506      -0.40396002
C       -1.65795445       0.57896066      -0.02692449
C       -0.31588399       1.39282715       0.65172493
C       -0.32796645       1.39282715       0.67510855
C       -0.87032253       1.40440130       1.88944554
C       -0.87032253       1.40440130       1.88944554
C       -0.89149153       1.40440130       1.87976778
H       -0.95903528       1.06158972       1.24298596
H       -1.82918787       0.89291352      -0.57426846
C       -1.59315383       1.45882142       1.25030184
C       -2.80970073       1.42201424       0.53843296
C       -2.79705596       1.42201424       0.51725131
C       -2.79705596       1.42201424       0.51725131
C       -3.62146020       1.43515480       1.78227401
