13
Properties=species:S:1:pos:R:3 pbc="F F F"
C        0.00000000       0.00000000       0.00000000
H       -0.98964059       0.42366105      -0.27059564
O        0.95282930       0.95044005       0.42056882
H        0.37873277      -0.57852900      -0.86831152
H        1.14480710       1.51417089      -0.31960124
C       -0.22032684      -0.94555515       1.13025630
C        0.73250604      -1.49135256       2.04628706
H        1.80311322      -1.29326069       2.09785557
N        0.18818015      -2.30998755       2.88153839
C       -1.37326527      -1.49566090       1.50041199
O       -1.24574232      -2.38335943       2.53608942
O       -2.57448864      -1.20426524       0.95759583
H       -3.21522117      -1.90637267       1.15100372
