31
Properties=species:S:1:pos:R:3 pbc="F F F"
C        0.00000000       0.00000000       0.00000000
H       -0.78818077       0.73473746       0.16441165
C       -0.31680053      -1.28809309      -0.76246405
H       -1.35926032      -1.42997420      -1.04750192
H        0.34730268      -1.52336812      -1.59415603
C        1.41188478       0.58396512      -0.08039647
H        1.62592673       1.41110778      -0.75724250
C        2.39164567      -0.60963708       0.05331910
H        3.07482672      -0.96585786      -0.68915635
C        1.58804297      -1.37409735       1.07797563
O        1.97999120      -0.32455564       1.99848461
H        1.89287674      -2.37228608       1.39229202
C        2.55541968       0.50384670       0.98481309
O        3.30809641       1.40687394       1.16952527
C        0.01058009      -1.77226925       0.65149963
O       -0.22403598      -2.78514433       1.23041129
H        0.50307357      -1.30773878       0.99712288
H        0.51273656      -1.45599842       1.39332926
C        0.59959817      -0.69802171      -0.22591698
C        0.57817906      -0.69802171      -0.22741890
C        2.05292106      -0.99824321      -0.10453445
C        2.00059175      -1.17586875      -0.05859190
C       -0.24803787      -0.67635512      -0.30355027
C        3.21287727      -0.34527701      -0.02144993
C        1.49271965      -2.36618662       0.14465138
C        1.51967084      -2.39384222       0.17411931
C        2.74619341      -3.10939312       1.16231251
C        2.70126009      -3.13669753       1.19632757
C        0.69662774      -1.46464348      -0.72035688
H        1.50027871      -3.18980217       0.57650805
H        2.48602223      -3.27197838       1.16885281
