30
Properties=species:S:1:pos:R:3 pbc="F F F"
C        0.00000000       0.00000000       0.00000000
H       -0.11036894       0.35126507       1.04715371
O        0.77769750      -1.14341378      -0.14103082
H       -1.00822711      -0.16361660      -0.43451932
C        0.21325827      -2.27467394       0.48327437
H        0.15537602      -2.14936543       1.58465838
H       -0.82908690      -2.43829060       0.13853478
C        1.03288090      -3.48541689       0.19618848
C        2.09236336      -3.68146205      -0.58353078
H        2.61376619      -2.96084857      -1.21357417
O        0.68340063       1.02058887      -0.69243062
C        1.47303379       0.56805825      -1.79542375
H        2.37773061       1.21108389      -1.78354764
C        0.78163928       0.79063576      -3.11925554
H        0.04459316       1.59257150      -3.16122508
C        1.12226748       0.12742841      -4.19639397
C        2.03768826      -1.05077243      -4.53513479
H        3.10190153      -0.81549740      -4.52116442
H        1.84048605      -1.95805740      -3.96413183
H        1.79272187      -0.46440852      -1.65431678
C        0.71777916       0.16684596      -5.65067482
O        0.06351906       0.91832161      -6.33720732
N        1.42986786      -0.97350293      -5.91417503
H        1.76218367      -1.32627320      -6.80030060
C        2.49629569      -5.15432787      -0.49186698
H        0.69700176      -4.40934944       0.71158469
O        3.45009017      -5.69283724      -1.00604880
C        1.45832992      -5.82635164       0.37479845
H        0.43171000      -5.59107637       0.09409159
H        1.60562968      -5.55417824       1.41994143
