27
Properties=species:S:1:pos:R:3 pbc="F F F"
C        0.00000000       0.00000000       0.00000000
H        0.17519395       1.54585254       0.75666624
C        0.03607820       0.16084003       0.07484156
O        0.15622035       0.10722673       0.03410614
C       -1.06453228      -0.41486865      -0.06556790
H       -1.45362616      -0.46206057      -0.05756310
H       -1.46327412      -0.43391126      -0.05811249
N       -1.48335552      -0.37712929      -0.00176904
N       -1.58223045       1.16211438       0.25083619
N       -1.60958683       1.15611124       0.26948214
N       -1.57134533       1.16211438       0.25481004
O       -3.09728932       1.11904228      -0.37139821
O       -3.09728932       1.11904228      -0.37139821
O       -3.09775162       1.14775550      -0.37158793
C       -4.38231611       2.03851628       0.16913038
C       -4.35782623       2.06263971       0.18498963
C       -4.34261131       2.08647704       0.17827398
C       -4.84541225       0.49266374      -0.45439082
C       -4.90532970       0.50641501      -0.44080371
C       -4.77896595       0.50641501      -0.52960539
N       -3.99496484       1.04513121       0.89524579
N       -5.26800251       2.15509677      -1.02337408
N       -5.26800251       2.15509677      -1.02337408
N       -5.26046562       2.10419893      -1.05750632
N       -3.95579314       1.12041831       0.96867585
N       -3.94833708       1.13632870       0.98265278
N       -3.93794847       1.23735642       1.07730365
