13
Properties=species:S:1:pos:R:3 pbc="F F F"
C        0.00000000       0.00000000       0.00000000
H       -0.78038114      -0.57594562      -1.43254614
C        0.05919260      -0.10510656      -0.19225419
O       -0.17048305      -1.09665298      -2.28447771
O        0.16046119      -1.08898532      -2.15067196
N        0.52263796      -1.00069606      -1.80190599
C       -0.16365831      -1.43470252      -3.06433392
C       -0.15001114      -1.43470252      -3.06409502
C        1.13435221      -1.90622044      -3.62374210
C       -1.57326674      -1.42243218      -3.09517717
C       -1.57326674      -1.42243218      -3.09517717
C       -1.57326674      -1.42243218      -3.09517717
C       -1.59326124      -1.42225814      -3.09561467
