23
Properties=species:S:1:pos:R:3 pbc="F F F"
C        0.00000000       0.00000000       0.00000000
H       -0.73537493       0.74285531       1.37850881
C       -0.04521114       0.23349297       0.11157489
C       -1.09541225       0.48637465       0.16661382
C       -2.56649923      -0.14339164      -0.23562285
C       -2.56649923      -0.14339164      -0.23562285
C       -2.55570412      -0.16983888      -0.23267117
N       -2.01012349      -1.52609289      -0.07835044
H       -2.30404139      -0.79722136      -0.15871584
O       -2.62758231      -1.58422911      -1.40612817
O       -2.60570192      -1.58422911      -1.41159952
O       -2.90411615      -2.25089478       0.46002531
O       -2.55299544      -2.32932258       0.60521108
O       -2.59864330      -2.36916780       0.50089854
O       -2.68573952      -2.45421576       0.15998897
O       -3.07512593       1.02515960      -0.36955208
O       -3.07512593       1.02515960      -0.36955208
O       -1.70216537      -2.30109477       0.02296291
O       -1.70216537      -2.30109477       0.02296291
O       -1.70216537      -2.30109477       0.02296291
O       -1.70216537      -2.30109477       0.02296291
O       -1.70216537      -2.30109477       0.02296291
O       -1.70543706      -2.30109477       0.03346856
