13
Properties=species:S:1:pos:R:3 pbc="F F F"
C        0.00000000       0.00000000       0.00000000
H        1.33810139      -0.28474739      -1.05891478
C        0.03654611      -0.18916677      -0.18615133
C        1.19783497       0.32370481      -0.45310044
C       -0.02059436       0.67985499       0.60097909
C       -0.08856308       0.66369081       0.62099743
C       -1.38789117       0.36366120       1.01320517
C       -1.38789117       0.36366120       1.01320517
C       -1.38269544       0.34008536       1.01163685
H       -0.03385400       1.50903833      -0.37387446
H       -0.03385400       1.50903833      -0.37387446
H       -0.03055789       1.50903833      -0.37507778
H       -0.04038057       1.50903833      -0.37129569
