26
Properties=species:S:1:pos:R:3 pbc="F F F"
C        0.00000000       0.00000000       0.00000000
H       -0.99719554       1.25221181      -0.65609705
C       -0.34615403      -0.06707883      -0.16812706
C       -1.77008271       1.24464083      -1.05545628
C       -1.77671742       1.22950101      -1.04175210
C       -0.70787430       1.93865955      -1.79988575
C       -0.70706010       1.86930132      -1.85819960
C       -0.65788960       2.36534691      -0.45405614
C       -1.67446721       2.47588825      -2.26697779
C       -0.63478243       2.43799925      -0.48289740
C       -1.84476840       2.66800690      -1.49580884
C       -2.20850039       0.33298659      -0.15929878
C       -2.22387815       0.33298659      -0.16699064
C       -2.36814499      -0.00823438      -0.02081072
C       -1.84112990      -0.21199989      -0.87093544
C       -3.11564064       0.02873931      -0.42377871
C       -3.11609364       0.01395432      -0.42402306
C       -1.50889349      -0.77462888       0.68764234
C       -1.56197906      -0.74680877       0.70771945
C       -3.10847378       0.02873931      -0.43679887
C       -3.55278611      -1.25650513       0.21957833
C       -3.55278611      -1.25650513       0.21957833
C       -3.55278611      -1.25650513       0.21957833
C       -3.55278611      -1.25650513       0.21957833
C       -3.55278611      -1.25650513       0.21957833
C       -3.54123092      -1.25650513       0.22725362
