18
Properties=species:S:1:pos:R:3 pbc="F F F"
C        0.00000000       0.00000000       0.00000000
H        0.94187474       0.17940737       0.51844418
C       -1.30532229      -0.17272244       0.77922964
H       -1.24837923      -0.06853952       1.86274374
H       -1.87475252      -1.05843377       0.49751380
C       -0.86552590       1.10314083      -0.66063821
C       -0.39067131       2.44040847      -1.17670631
H       -1.22205138       3.13212347      -1.31248915
C        0.86955994       3.09463048      -0.79630029
H        0.86311674       4.16896915      -0.61230457
N        0.65888041       2.64778328      -2.20201707
H        1.61921453       2.55924463      -0.21365190
H        1.16463375       1.80513930      -2.32145000
C       -0.87505424       0.00000000      -1.74943900
H       -1.76679993      -0.58420897      -1.97657108
H       -0.43420884       0.38071239      -2.67074943
O        0.13066001      -0.84856308      -1.14357626
O       -1.88007355       1.08169496       0.21691674
