31
Properties=species:S:1:pos:R:3 pbc="F F F"
C        0.00000000       0.00000000       0.00000000
H        0.38534653       0.21273981      -0.97526872
C        0.42686769      -0.61861807       1.16927075
N        1.40500927      -1.30207598       1.80063653
H        2.33605576      -1.57658648       1.45611358
C        2.50003862      -1.65895402       1.50122476
C        1.38773119      -1.01056576       0.71226180
C        1.17283833      -1.01056576       1.18780828
O        3.47626495      -2.16850162       1.80029047
H        1.33249485      -0.45421457       1.53992128
C        3.72535753      -2.26440263       1.84781361
C        2.68049216      -1.89951479       1.67032301
C        2.77111149      -1.03210127       0.97794610
O        1.50407863      -1.12293100       1.18755317
H        1.74359989      -0.34793282       0.49262846
H        1.72682858      -0.34793282       0.50314462
H        1.69850731      -0.36780393       0.49628335
H        0.77846062      -0.68417865       0.41575769
H        0.76436764      -0.70768857       0.43142134
H        0.72844768      -0.72165966       0.41114926
H        0.77108538       0.33575165       0.79163980
H        0.77108538       0.33575165       0.79163980
H        0.76618278       0.33575165       0.77486920
H        2.00359082      -1.51274848       0.32791340
H        2.00816536      -1.53200161       0.32501701
H        1.99728298      -1.51827288       0.35734516
C        0.10727745      -0.31424028      -1.07507396
C        0.00348425      -0.65679538      -0.45591474
C        0.03566742      -0.63645971      -0.48116916
C        0.11315000      -0.25727817      -1.06160998
C        0.09513462      -0.26260847      -1.03245282
