9
Properties=species:S:1:pos:R:3 pbc="F F F"
C        0.00000000       0.00000000       0.00000000
H        0.78567785       1.12096226      -1.05785191
C        0.11476463       0.11194706      -0.02835631
C        0.79250348      -0.31586027      -0.86293536
C        1.09379005       1.06663322      -0.27771920
C        1.09379005       1.06663322      -0.27771920
C        1.09379005       1.06663322      -0.27771920
C        1.09379005       1.06663322      -0.27771920
C        1.10787666       1.08036971      -0.28130716
