31
Properties=species:S:1:pos:R:3 pbc="F F F"
C        0.00000000       0.00000000       0.00000000
H        0.57770526       0.12530847      -0.93949652
O       -0.72937757      -1.20012903       0.12568611
C       -0.82144427      -0.27805543       1.26048088
H       -0.70629174       0.82714260       0.07131931
C       -1.95743549       0.73344779       1.09530497
H       -2.90509844       0.27399382       0.90626419
C        0.73925936      -0.18003964       1.64348853
H        1.02925944       0.73069668       2.12448597
N        1.23431420      -0.42901739       0.39056039
C        0.35186505       0.40468425       0.96163285
H        0.37555766       0.20223102       1.00279355
C        0.69034272      -0.89416009       1.65339422
C        0.11910191       2.09732461       0.58310032
C        0.12576221       2.09732461       0.57908475
C       -0.62210721      -0.08878109       1.69739819
C        1.45555508      -0.08878109       0.44474685
C        0.81736583       2.07617998       0.15797034
C        1.43368673      -0.10490021       0.45604652
O        0.30884695      -1.20099807       0.85770047
O        0.28075635      -1.15790701       0.89119387
O        0.28075635      -1.15790701       0.89119387
C        0.66991150      -1.71985340       0.38594705
C        0.65438986      -1.67412877       0.32868785
C        0.52080005      -1.54938900       0.17591721
C        0.34605551      -1.34137845       0.06380397
C        0.19369289      -0.90540278       2.13278961
C        0.19369289      -0.90540278       2.13278961
C       -0.19787681      -0.24932742       1.08344102
C       -0.19787681      -0.24932742       1.08344102
C       -0.21563810      -0.24932742       1.07376552
