22
Properties=species:S:1:pos:R:3 pbc="F F F"
C        0.00000000       0.00000000       0.00000000
H       -1.20400739      -0.04516050       1.24146020
C       -0.13504720      -0.08562223       0.11977184
C       -1.09429574       0.42002833      -0.14866960
C       -1.20646083       2.03563690      -0.46446225
C       -1.21197033       2.03563690      -0.46245089
C       -0.27732241       0.29178828      -0.41887099
H        0.90312982       0.44928932      -0.63293898
H        0.92120075       0.43064359      -0.65795362
H        0.81547153       0.55951941      -0.65682143
C        0.37650579       1.07566321      -0.75673091
C        0.36128104       1.10384560      -0.65428752
H        0.18012959       1.26395190      -0.67410868
O       -0.76251984       2.08225775      -0.89898950
O       -0.76663029       2.08225775      -0.87928444
O       -0.76251984       2.08225775      -0.89898950
C       -0.82192141       2.04528403      -0.05187422
C       -0.85153115       2.04528403      -0.05447203
O       -1.00643468       2.09243941       0.24525732
C        0.85084856       1.95159388      -1.30992293
C        0.84340978       1.95159388      -1.33809566
C       -0.85076153       2.10862303       0.10680264
