9
Properties=species:S:1:pos:R:3 pbc="F F F"
C        0.00000000       0.00000000       0.00000000
H        1.18551409      -0.97749907       0.79495198
C        0.12016881      -0.02400762       0.14626801
C        1.17598259      -0.05092323      -0.29420584
C        0.98951072      -0.20493855       1.21566367
C        0.98951072      -0.20493855       1.21566367
C       -0.20354474       0.20113471      -1.27270889
C        0.98951072      -0.20493855       1.21566367
C        1.00201917      -0.20754187       1.23105061
