34
Properties=species:S:1:pos:R:3 pbc="F F F"
C        0.00000000       0.00000000       0.00000000
H        0.62911803       0.62911803       0.62911803
H       -0.62911803      -0.62911803       0.62911803
H        0.62911803      -0.62911803      -0.62911803
C       -0.86037314       0.88633257      -0.90281260
C       -1.87103450       1.61819029      -0.08853620
N       -2.65080261       2.19026995       0.49591720
C       -0.04141670       1.97523928      -1.59886587
H       -0.61035872       2.52331400      -2.48881984
O        1.16443467       2.25368404      -1.23487473
N       -1.51973438       0.10917395      -1.93420255
H       -2.26699901      -0.45020431      -1.60436773
C       -1.81827104       0.66198421      -3.17411184
H       -1.06016445       1.29692316      -3.58280015
C       -3.17191076       0.54540384      -3.78580284
H       -3.98259544       0.25365713      -3.22137952
C       -2.23612881      -0.12751228      -4.52633953
H       -2.59609604       0.62081391      -3.85155725
C       -0.82116961       0.72763586      -5.17744446
O       -2.27825499       0.51221228      -4.13323832
O       -3.83907270       1.01426220      -2.77624154
C       -1.87959385      -0.57236874      -5.12956858
N        0.16519237       2.29900026      -3.11713982
C       -1.38384485      -0.16557157      -4.46420431
C       -1.30325127      -0.22953874      -4.38157701
O       -0.71324891       0.27667367      -0.14570367
O       -0.68277627       0.32577991      -0.15667742
N        0.40273517       1.04973900      -0.74186659
N       -0.16286945       1.05986428      -1.29391766
N       -0.47778603       1.81873214      -0.54408836
N       -0.36109355       1.73958337      -0.71839839
N        0.56808847       1.30141306       0.02917036
O        0.37061399       1.54394686      -0.05538964
N       -1.19273651       2.01371121       0.20145077
