34
Properties=species:S:1:pos:R:3 pbc="F F F"
C        0.00000000       0.00000000       0.00000000
H        0.62911803       0.62911803       0.62911803
H       -0.62911803      -0.62911803       0.62911803
H        0.62911803      -0.62911803      -0.62911803
C       -0.91764456       0.86449343      -0.86687791
C       -1.76791215       0.06614769      -1.72838068
C       -2.54339600      -0.58534884      -2.46096253
C       -3.50440073      -1.46970177      -3.46937084
H       -1.48360562       1.59668279      -0.21842909
O        0.55218548       0.77378315      -0.64000934
H       -0.06758660      -0.15011039       0.16853803
O        0.49521142       1.05978322      -1.19185662
C       -0.28680235      -0.87568641       1.06724691
H       -0.29018065      -0.46923509       0.59305447
H       -0.40070155      -1.02473938       1.22957087
H       -0.35256824      -1.03851616       1.31197441
C       -1.88663244      -0.84144413       0.82321543
C        0.76238459      -0.61632562       1.10288453
C        0.75346118      -0.66749138       1.12701380
C       -1.89064145      -0.88559866       0.71203387
C       -1.88830042      -0.79442900       0.62360853
O       -2.98180532      -0.82340485       0.81204093
O       -2.98493576      -0.82340485       0.79287422
O       -2.98773003      -0.82340485       0.77365613
O       -3.11684465      -0.81565976      -0.08726197
O       -3.10142136      -0.81565976      -0.08943570
O       -3.10142136      -0.81565976      -0.08943570
C       -3.19842672      -0.81217885      -0.47928703
O       -3.26866579      -0.78085476       2.39742517
O       -3.12734556      -0.86595494       2.41608286
O       -3.18358326      -0.80817580      -0.94574702
O       -3.26793528      -0.80852389      -0.89347887
O       -3.18358326      -0.80817580      -0.94574702
C       -3.39196801      -0.81165671      -0.49424863
