34
Properties=species:S:1:pos:R:3 pbc="F F F"
C        0.00000000       0.00000000       0.00000000
H        0.62911803       0.62911803       0.62911803
H       -0.62911803      -0.62911803       0.62911803
H        0.62911803      -0.62911803      -0.62911803
C       -0.92063457       0.86441571      -0.93279940
C       -1.77489603       0.04613614      -1.96505594
H       -1.12114906      -0.56974494      -2.58263564
H       -2.50269866      -0.62440681      -1.41955185
N       -2.50637579      -1.29200947      -1.23676991
C       -0.64794111       1.95482230      -0.25993222
C       -0.65297925       1.94202161      -0.23765576
C       -1.35350132      -0.45939928      -0.04813147
C       -0.79121518       0.99351478      -2.57264113
C       -1.06171811      -0.73078656       2.23890615
O       -0.69939709      -0.68719232       0.60926807
C       -1.68032074      -1.66935134       0.26568392
C       -1.66052461      -1.65561485       0.25361419
C       -1.55088615      -1.67330420       0.07015026
N        0.64808041       1.36025584       0.19601560
N        0.65487432       1.36768997       0.20918009
N        0.68956274       1.37490034       0.22581297
H       -0.17744887       1.26228881       1.14973640
H       -0.17724574       1.24548531       1.16982865
H       -0.17724574       1.24548531       1.16982865
H       -0.18603319       1.22849488       1.17572117
C       -0.49218038       0.34113520       1.90946770
C       -0.24052647       0.46300787       2.21261978
C       -0.27944350       0.47038728       2.06197548
C       -0.29493988       0.47038728       2.06020474
H        0.17806557       0.54161614       3.13645720
H        0.17806557       0.54161614       3.13645720
H        0.15919095       0.54161614       3.14429951
H        0.51692015       0.58978319       1.97451460
C       -0.36050415       0.44334078       2.02952600
