34
Properties=species:S:1:pos:R:3 pbc="F F F"
C        0.00000000       0.00000000       0.00000000
H        0.62911803       0.62911803       0.62911803
H       -0.62911803      -0.62911803       0.62911803
H        0.62911803      -0.62911803      -0.62911803
C       -0.90890676       0.85340405      -0.92091662
C       -0.09792358       1.70659685      -1.86667871
N       -0.21803468       1.31373107      -3.11059523
N       -0.89162582       0.76880503      -0.98879433
O       -0.67025548      -0.29399419      -1.84103656
N       -0.73626220       0.02184087      -1.58779871
N       -0.73626220       0.02184087      -1.58779871
N       -0.32224345       2.47522449      -2.66051483
N       -0.32678732       2.46700835      -2.64088988
C       -0.56100929       0.22856390      -1.83432043
C       -0.05563074       0.34945118      -2.80244875
C       -1.25721133      -0.26031959      -0.69279981
C       -1.24776101      -0.23875116      -0.71128702
C       -0.02306658       0.33901316      -2.81538081
H       -1.20757306      -0.25706390      -0.83614856
H       -0.41415522      -0.13123149      -2.44670248
H       -0.42839101      -0.11524333      -2.45458746
H        0.02573875       0.28651804      -3.25421619
H        0.02573875       0.28651804      -3.25421619
H       -1.23048043      -0.45911109      -0.93439746
O       -1.82936835      -0.18767719       0.87444496
O       -1.88386607      -0.33296198       0.85346150
O       -1.84899092      -0.36077055       0.84414637
O       -1.84630060      -0.44658887       0.83715928
H       -1.03041172      -0.62751710       1.19728398
C       -2.10625339       0.96207988       1.06204796
C       -2.18439913       0.96137762       1.09057164
C       -2.17532349       0.96137762       1.10224867
C       -2.16095757       0.96137762       1.11915100
N       -3.05505157       0.97626466      -0.26327395
