34
Properties=species:S:1:pos:R:3 pbc="F F F"
C        0.00000000       0.00000000       0.00000000
H        0.62911803       0.62911803       0.62911803
H       -0.62911803      -0.62911803       0.62911803
H        0.62911803      -0.62911803      -0.62911803
N       -0.89609969       0.83059174      -0.81732529
C       -0.48998249       1.73807085      -1.84516215
C       -2.26702666       0.69773459      -0.63022435
O       -2.83342075      -0.03712201       0.14648825
H       -2.82169127       1.38710487      -1.30045962
N       -1.29998255       2.49722028      -2.41969776
H       -0.84022409       3.03128624      -3.08625269
O        0.82382953       1.72632265      -2.15541720
C        0.97688603       2.77252722      -3.17665553
H        2.06471229       2.65878630      -3.64547992
H        0.26503962       2.57443547      -3.97798800
O        0.78899157       1.84213257      -2.19486952
H       -3.63712859       1.45204568      -1.15994370
H       -3.63712859       1.45204568      -1.15994370
H       -3.63712859       1.45204568      -1.15994370
H       -3.63712859       1.45204568      -1.15994370
H       -3.63712859       1.45204568      -1.15994370
H       -3.63712859       1.45204568      -1.15994370
H       -3.63811874       1.43763483      -1.15977311
O       -2.61390328      -0.16862702      -1.33814073
N       -3.52975774       3.13843989      -1.18529916
N       -3.52848721       3.15839720      -1.18559921
N       -3.52848721       3.15839720      -1.18559921
N       -3.52848721       3.15839720      -1.18559921
N       -3.55705380       3.16007996      -1.17737961
H       -2.77531433       4.10557842      -1.40577471
H       -2.77531433       4.10557842      -1.40577471
H       -2.75960588       4.09177828      -1.41036677
H       -2.75960588       4.09177828      -1.41036677
H       -2.74413061       4.07769537      -1.41489077
