34
Properties=species:S:1:pos:R:3 pbc="F F F"
C        0.00000000       0.00000000       0.00000000
H        0.62911803       0.62911803       0.62911803
H       -0.62911803      -0.62911803       0.62911803
H        0.62911803      -0.62911803      -0.62911803
C       -0.86356163       0.84189230      -0.87497234
N       -0.94913912      -0.44418925      -0.47351354
N       -0.86869323       0.02279204      -0.58180296
C       -0.40132871      -0.07775873      -0.16568989
H       -0.83896244       0.32745993      -0.69378269
C       -1.21206093       0.69882506      -1.14534736
N        0.24918807       0.23182629      -0.01652002
N        0.39397109      -0.10630703       0.47247851
N       -0.01122123       0.01261032       0.21414733
O        0.97838050       0.78868240       0.70948875
O        0.98387581       0.80650651       0.68979126
O        0.97838050       0.78868240       0.70948875
O        0.95904368       0.77068967       0.74152368
C        1.35211420       1.51756907      -0.28707832
C        1.31292129       1.53598249      -0.28736824
C        0.46075696      -0.01030982       1.71314669
C        0.25472975       0.09611911       1.70185161
C        0.24773759       0.11759949       1.71144032
C        1.21456158       1.55997813      -0.27143943
C        1.46708894       1.54701209      -0.32022566
O        1.38875580       2.88206530      -0.88449347
O       -0.28415263       1.64979780       0.11447296
O       -0.30118906       1.57957673       0.13882917
H        2.05253577       1.34371328      -0.38172397
H        2.04827166       1.31788051      -0.35512674
H        2.47219276       1.29938400      -0.41468564
H        2.47219276       1.29938400      -0.41468564
H        2.46996713       1.27912259      -0.39398363
O       -0.28069031       1.95298171      -0.01275760
O       -0.28760087       1.92477465      -0.01156676
