34
Properties=species:S:1:pos:R:3 pbc="F F F"
C        0.00000000       0.00000000       0.00000000
H        0.62911803       0.62911803       0.62911803
H       -0.62911803      -0.62911803       0.62911803
H        0.62911803      -0.62911803      -0.62911803
C       -0.89053744       0.85319287      -0.87126511
H       -1.55365586       1.49621856      -0.25572389
O       -1.70932126       0.02479053      -1.70086789
C       -1.78881240       0.67011154      -2.99691582
H       -2.86570215       0.73890525      -3.33228946
N       -1.01929998      -0.23041701      -3.83321548
C       -1.05787873       0.01482788      -5.30238676
H       -1.94274449       0.49842322      -5.59504223
C        0.14288044       0.48634580      -4.55676889
H        0.91634917      -0.21992537      -4.85847473
C       -2.27046585      -0.24251324      -3.22779322
O       -1.20941889      -1.39759469      -3.15805411
O        0.72391665       1.48038352      -3.89104795
H       -0.01470828       2.03647280      -3.48448014
H       -0.29084843       1.55498421      -1.52300215
C       -0.40776867      -1.07814324      -6.11655426
H       -0.92443240      -1.64451826      -7.02670670
H       -0.91945636      -1.10607493      -7.05585957
O       -0.82969934      -2.59859133      -6.84506083
O       -0.93057263       0.59807706      -7.19671106
O       -0.91457361       0.60027659      -7.16738224
C        0.52455664       1.03977680      -5.84150028
C        0.77093685       1.52132857      -5.00225115
C        0.74014080       1.56010497      -4.94973183
C        1.39680088       0.58066595      -6.35189867
C        1.41940320       0.59036988      -6.36512470
N        0.92397112       0.36686069      -6.96602249
N        0.89253831       0.30549592      -6.93800354
N        0.46710908      -0.53146070      -6.51443195
N        0.45135793      -0.54771227      -6.51386309
