34
Properties=species:S:1:pos:R:3 pbc="F F F"
C        0.00000000       0.00000000       0.00000000
H        0.62911803       0.62911803       0.62911803
H       -0.62911803      -0.62911803       0.62911803
H        0.62911803      -0.62911803      -0.62911803
C       -0.88768917       0.93163913      -0.89941865
C       -0.00655645       1.77403152      -1.82401466
H        0.58787030       1.21635044      -2.51723027
C        0.52197570       1.13308454      -2.39841914
O        1.23248482       2.01378202      -3.65277958
O       -0.24525064       0.13759798      -0.96020281
O       -0.05419481       0.35592592      -1.31834960
O       -0.17800778       0.28762186      -1.13980353
C       -0.92799282      -1.27415133       2.16231823
C       -0.92799282      -1.27415133       2.16231823
C       -0.95477951      -1.27415133       2.15685272
O        0.95503163       1.66692650      -3.19122839
O        0.95122468       1.68021607      -3.18424010
C        0.68940425       2.85236120      -2.71346998
C        0.58765858       3.09281492      -2.50271153
C        0.56389463       3.07915783      -2.48779559
N       -0.47431374       1.94266558      -2.07291436
O        0.38984245       4.33035612      -1.73605990
O        1.58924150       2.30079985      -1.39284384
O       -0.22063321       3.91109443      -1.43407655
O       -0.22063321       3.91109443      -1.43407655
O       -0.22063321       3.91109443      -1.43407655
O       -0.22063321       3.91109443      -1.43407655
O       -0.22681379       3.85414338      -1.42590523
C       -0.13905773       4.70945644      -1.54391134
C       -0.06525789       5.19822598      -1.62182617
C       -0.13905773       4.70945644      -1.54391134
C       -0.06199585       5.19822598      -1.61907816
C       -0.14099243       4.70945644      -1.54532218
O       -0.12902448       4.78555775      -1.57199371
