16
Properties=species:S:1:pos:R:3 pbc="F F F"
C        0.00000000       0.00000000       0.00000000
H        0.62911803       0.62911803       0.62911803
H       -0.62911803      -0.62911803       0.62911803
H        0.62911803      -0.62911803      -0.62911803
C       -0.88674450       0.86449343      -0.89846152
H       -0.27379876       1.49593306      -1.54164171
N       -1.81646943       1.70638573      -0.09414405
C       -2.99765587       1.31951797      -0.43944141
H       -3.89489961       1.71794820       0.03416833
N       -3.04396558       0.41886032      -1.49716055
C       -1.75642848       0.10456726      -1.75399971
C       -3.84200144      -0.44960648      -2.30574107
H       -4.82745934      -0.35498160      -2.31005287
C       -2.88392544      -1.23499596      -2.93610001
H       -3.18801022      -2.09352684      -3.79222870
N       -1.65872610      -0.86393952      -2.65806723
