34
Properties=species:S:1:pos:R:3 pbc="F F F"
C        0.00000000       0.00000000       0.00000000
H        0.62911803       0.62911803       0.62911803
H       -0.62911803      -0.62911803       0.62911803
H        0.62911803      -0.62911803      -0.62911803
C       -0.87612122       0.85340405      -0.95216101
H       -0.20930845       1.48484373      -1.53931010
C       -1.75322628      -0.03369051      -1.90539122
H       -2.53946924       0.55543369      -2.32924747
C       -0.27619672       0.24799964      -2.28159833
C       -0.44835174       0.00520495      -1.18713796
H       -0.23782627       1.00418901      -2.19066072
N        0.93471479       0.49126023      -0.88885295
C        0.39523095       1.18941355       0.10937458
C        1.28430700       0.62009150      -1.13252449
O        0.99235219       0.59171122       0.75707686
H        0.01412129       0.18476790      -0.27154499
C        2.09650898       0.82417804      -1.65324676
C        2.10463524       0.84833145      -1.62958503
C        1.11954451       1.28290248      -1.80439103
C       -0.83391470      -0.09074563      -1.91616225
C       -0.83391470      -0.09074563      -1.91616225
C       -0.83391470      -0.09074563      -1.91616225
C       -0.85036457      -0.07380915      -1.93303347
C       -1.95587742       1.22876632      -3.31663918
C       -1.95587742       1.22876632      -3.31663918
C       -1.95587742       1.22876632      -3.31663918
C       -1.97324705       1.22876632      -3.32670140
O        0.99428397       2.65326262      -2.64016652
O        0.99428397       2.65326262      -2.64016652
O        0.99428397       2.65326262      -2.64016652
O        0.99236774       2.62150908      -2.65295243
O        1.02360523       3.43470311      -2.36197424
O        1.02360523       3.43470311      -2.36197424
C        1.11378813       4.15647316      -1.79224348
