34
Properties=species:S:1:pos:R:3 pbc="F F F"
C        0.00000000       0.00000000       0.00000000
H        0.62911803       0.62911803       0.62911803
H       -0.62911803      -0.62911803       0.62911803
H        0.62911803      -0.62911803      -0.62911803
C       -0.91412783       0.87579399      -0.89434499
C       -1.82753491       1.84303713       0.04747528
H       -2.28769326       2.67264748      -0.52880579
O       -1.89091992       1.76937306       1.25356603
C       -1.87630463       0.07744825      -1.62875485
C       -2.75792789      -0.53513259      -2.18695211
H       -3.55403519      -1.09281373      -2.63428211
C       -0.12813801       1.81358576      -1.77914119
H       -0.71309888       2.33236623      -2.53860617
C        1.25021648       1.77730072      -1.95498371
H        1.90246081       1.13427496      -1.32793152
O        1.74691558       2.51905179      -2.82996607
N       -1.40224361       1.05318880      -0.67208427
H        0.32375610       0.53348452      -1.41594458
H        0.33650994       0.53348452      -1.38562369
H        1.06343162       0.48205897       0.40919411
H        0.73524642       0.57741797      -0.49461675
C        1.06613803       2.04787374      -1.13382447
C       -0.10980135       0.54331815      -2.45941496
H        0.05538544       0.44350636      -2.53056574
H        0.62788677       0.55462903      -0.66550648
H        0.92121762      -0.05161357      -2.84093165
C       -0.18481350       0.99988580      -3.02414966
H       -0.73376685       0.94117379      -2.13005495
O        0.76312923       0.39543161      -1.49389935
H        1.85587704       0.22002283      -1.05659723
H        1.85587704       0.22002283      -1.05659723
H        1.86336279       0.22002283      -1.07578838
H        2.46835518       0.20409757      -2.78098488
H        2.46835518       0.20409757      -2.78098488
