34
Properties=species:S:1:pos:R:3 pbc="F F F"
C        0.00000000       0.00000000       0.00000000
H        0.62911803       0.62911803       0.62911803
H       -0.62911803      -0.62911803       0.62911803
H        0.62911803      -0.62911803      -0.62911803
C       -0.91474706       0.90950465      -0.89495075
C       -0.04992402       1.67396498      -1.86849046
N       -0.03476886       1.01198673      -1.00266457
O       -0.41098395       0.93910837      -0.97758049
N        1.08336377       1.27971792      -1.02713025
N        1.08336377       1.27971792      -1.02713025
N        1.08725107       1.26021266      -1.04687178
O        1.17256606       1.53637266      -0.73315924
N       -0.27630436       1.24014366      -1.41866636
O       -0.33080912       1.92002320      -0.60025609
O       -0.31992638       1.94563532      -0.60354102
O       -0.32312179       1.92002320      -0.57557207
O       -0.31229830       1.94563532      -0.57904696
N        0.84275138       0.37399280      -2.02646303
N        0.84275138       0.37399280      -2.02646303
N        0.84275138       0.37399280      -2.02646303
O       -0.31824982       1.97963357      -0.57713628
N        0.83751851       0.32158083      -1.97498679
O        0.17622018       0.90926200      -2.01300621
N        0.90824246       1.06434560      -2.70471334
O        0.16803986       0.95611250      -2.02189636
N        0.92010248       1.06434560      -2.70346332
N        0.92010248       1.06434560      -2.70346332
N        0.90824246       1.06434560      -2.70471334
O        0.71463835      -0.82193005      -0.81095791
O        0.71463835      -0.82193005      -0.81095791
O        0.71463835      -0.82193005      -0.81095791
O        0.71463835      -0.82193005      -0.81095791
O        0.71463835      -0.82193005      -0.81095791
O        0.71683943      -0.84302068      -0.83184111
