29
Properties=species:S:1:pos:R:3 pbc="F F F"
C        0.00000000       0.00000000       0.00000000
H        0.62911803       0.62911803       0.62911803
H       -0.62911803      -0.62911803       0.62911803
H        0.62911803      -0.62911803      -0.62911803
C       -0.92488450       0.85340405      -0.90486890
C       -1.80244112      -0.06768662      -1.85858989
H       -1.06989276      -0.73822957      -2.39770412
H       -1.21484101      -0.27247354      -2.67937469
O       -1.64843774       1.13423407      -3.50959420
O       -1.62390149       1.15088153      -3.53425884
H        0.79500329      -1.06325507       0.03428763
H        0.79500329      -1.06325507       0.03428763
H        0.79500329      -1.06325507       0.03428763
H        0.79500329      -1.06325507       0.03428763
H        0.79500329      -1.06325507       0.03428763
H        0.79856801      -1.03919291       0.04854351
O        0.75121665       0.85801262      -0.14082333
O        0.74491984       0.86654705      -0.16600534
N        0.57228518      -2.50170755      -0.82440227
N        0.57228518      -2.50170755      -0.82440227
N        0.56964946      -2.51873064      -0.83456427
N        0.57228518      -2.50170755      -0.82440227
N        0.57228518      -2.50170755      -0.82440227
N        0.70442557      -1.67608666      -0.33268213
N        0.70442557      -1.67608666      -0.33268213
N        0.70442557      -1.67608666      -0.33268213
N        0.70442557      -1.67608666      -0.33268213
N        0.70442557      -1.67608666      -0.33268213
N        0.69897652      -1.71013284      -0.35295925
