13
Properties=species:S:1:pos:R:3 pbc="F F F"
C        0.00000000       0.00000000       0.00000000
H        0.62911803       0.62911803       0.62911803
H       -0.62911803      -0.62911803       0.62911803
H        0.62911803      -0.62911803      -0.62911803
C       -0.90692008       0.91977113      -0.85674661
C       -1.73112249       0.13189310      -1.78455937
N       -2.39709330      -0.52919024      -2.48338032
C       -0.05567992       1.83272076      -1.63315582
N        0.57673466       2.52209091      -2.23058343
C       -1.95302927       1.70508099       0.14895779
O       -2.12846851       1.24325228       1.25350928
N       -2.54262424       2.75330806      -0.31762165
H       -2.29093242       2.99551725      -1.22254467
