34
Properties=species:S:1:pos:R:3 pbc="F F F"
C        0.00000000       0.00000000       0.00000000
H        0.62911803       0.62911803       0.62911803
H       -0.62911803      -0.62911803       0.62911803
H        0.62911803      -0.62911803      -0.62911803
C       -0.85313833       0.86316049      -0.86441129
O       -1.87897992       1.86326063      -1.90380788
N       -2.10565138       0.33382314      -1.68849254
C       -1.89707935       1.94147503      -0.40362668
H       -1.54640770       2.87905169       0.02774182
O       -0.25715017       1.71635342      -1.95846701
C       -1.88522148       1.73953390      -1.75860918
O       -1.84051180       0.72721565      -0.48185158
N       -1.86742687       2.31621408      -2.43626928
C       -1.95512903       2.71609664      -2.86867619
O        0.74141264       0.41275010      -0.53179383
O        0.75444794       0.44116724      -0.55833101
C        0.38089633      -0.51958191       0.31489593
C        0.40191633      -0.53545666       0.30590832
C        0.39679474      -0.59336233       0.36323386
O       -0.79014432      -0.49400443      -0.60310102
O        0.97265691      -1.80122304       0.79166967
O        0.85605609      -1.81425464       0.87893808
O        0.72678590      -1.80122304       0.99154514
O        0.60913062      -1.75981534       1.10851288
N        1.02219248       0.25620896      -0.96720594
N        1.04453230       0.25620896      -0.95578641
C       -0.63672316      -2.94802165       1.27854407
C       -0.65702403      -2.92595792       1.28131473
C       -0.69315064      -2.88077760       1.30952001
O       -0.23629069       0.85473704      -0.41252762
O       -0.23927438       0.83780193      -0.44184315
O       -0.23629069       0.85473704      -0.41252762
O       -0.26505053       0.83780193      -0.41894549
C       -0.65723336       0.38550195      -0.92117846
