34
Properties=species:S:1:pos:R:3 pbc="F F F"
C        0.00000000       0.00000000       0.00000000
H        0.62911803       0.62911803       0.62911803
H       -0.62911803      -0.62911803       0.62911803
H        0.62911803      -0.62911803      -0.62911803
C       -0.88674450       0.86449343      -0.89846152
H       -0.20975804       1.49593306      -1.47385061
N       -1.71086001       1.76939940      -0.04871053
C       -3.03286028       1.78097355      -0.19389960
H       -3.61390448       2.43080544       0.42658851
N       -1.12226176       1.02691650      -0.73512894
C       -2.10915852       1.70441055      -0.04737979
C       -2.08204508       1.73020673      -0.03480995
N       -4.90454817       3.36129117       0.99626517
N       -4.90454817       3.36129117       0.99626517
O       -0.95085442       1.53430247      -0.28539756
H       -0.33470732       1.21549237      -0.75236130
O       -1.95731461       0.31093979      -0.86704832
O       -1.89407158       0.32580054      -0.88027221
O       -2.33031321       0.41415906      -0.77459317
O       -1.48455453       2.50271368       0.35085517
O       -2.59270763       0.47332585      -0.69781220
H       -1.80986464       2.51796556       0.45917386
H       -1.12163281       0.20112193      -1.00694466
H       -1.15057898       0.16292274      -0.95987093
C       -3.30351973       0.92676759      -0.48325056
C       -3.32896423       0.88739842      -0.48955747
O       -3.37233686       1.92990422       0.43265319
O       -3.21820092       0.56523073      -0.62043405
C       -1.69133806       0.69887131      -0.75701797
H       -1.97223938       1.34023142      -1.16426694
H       -1.96506906       1.34023142      -1.16912055
H       -0.02985358       0.25886109      -1.54311979
H       -0.05097890       0.22693807      -1.56855774
H       -0.05858922       0.19515795      -1.56479263
