34
Properties=species:S:1:pos:R:3 pbc="F F F"
C        0.00000000       0.00000000       0.00000000
H        0.62911803       0.62911803       0.62911803
H       -0.62911803      -0.62911803       0.62911803
H        0.62911803      -0.62911803      -0.62911803
C       -0.93366879       0.93163913      -0.85159183
C       -0.13477713       1.73962975      -1.71982074
C        0.59062761       2.43461466      -2.42952681
C        1.37391901       3.13385534      -3.14396048
N        0.61041147       0.54750323      -0.41483948
C        0.33068824       1.66791773       1.40418792
N       -0.90662515       2.28653574       1.26829958
H        0.27252963       1.20182681      -1.23632407
C        0.38241130       2.99336958       1.50114620
C        1.78512144       1.72078085      -2.20209837
H       -1.68933034       2.52906442       1.66409266
C        1.01186335       1.27388132      -1.27568316
C        0.60947388       3.14486718      -1.35282588
C        0.82975185       1.44267797      -3.18568826
H       -0.17131937      -0.05163115       0.09523696
O        1.43664646       0.41699925      -0.74233121
O       -0.91171849      -0.18718769       0.44116843
O       -1.09389794      -0.60053486       0.85020179
O        1.51923919       0.30349839      -0.62345642
O       -0.75861096      -0.23719846       0.40043244
O        2.71972942      -0.77858663      -1.04394722
O        2.70238590      -0.73366201      -1.18324137
O        2.74415016      -0.34153497      -1.59279728
C        0.80798221       0.79351771      -0.40876046
C        0.36861742       1.54123378      -0.36234748
C        0.38210225       1.52051187      -0.23629406
H        0.57266527       1.17213261       1.29482639
N        0.47239512       1.50426006       0.48048282
O        0.24175477       1.81675696      -1.68978620
O        0.53568101       1.24972582       1.22082174
