34
Properties=species:S:1:pos:R:3 pbc="F F F"
C        0.00000000       0.00000000       0.00000000
H        0.62911803       0.62911803       0.62911803
H       -0.62911803      -0.62911803       0.62911803
H        0.62911803      -0.62911803      -0.62911803
N       -0.85197020       0.83059174      -0.86322773
C       -0.68075132       2.16699100      -1.11145973
N       -1.42960262       2.86911368      -1.92530501
C       -2.48702526       2.21971440      -2.59480906
O       -3.27283478       2.81464624      -3.36361241
C       -1.96837425       0.19417173      -1.49053133
H       -2.08650279      -0.83587199      -1.22604132
C       -0.79409909       1.09900177      -2.18500900
H       -1.30766082       3.86460185      -2.04460788
H        0.14715296       2.57662749      -0.65574932
O       -1.38817549       2.59500504      -2.21883750
H       -1.59724557       4.08612728      -0.73582149
H       -1.60017622       4.06503677      -0.71502805
C       -1.70172286       3.37869787       0.00547975
C       -1.43832922       5.27494717      -1.94092345
C       -1.98707914       4.49112177      -1.45143926
C       -1.41767037       5.01993465      -2.09740233
C       -1.70392919       3.44002628      -0.06180769
C       -1.53342056       2.48188925       0.90245295
C       -2.04394460       2.38523006       0.77717537
C       -1.05279720       2.56433988       0.83110809
C       -2.36091185       2.48958635       0.74636030
C       -1.75401413       4.60010338      -1.20575261
C       -1.77700245       4.60797405      -1.25321651
O       -2.41901922       3.90701818      -2.00193143
O       -2.38619375       3.92428970      -2.04414034
N       -1.47595417       4.46148539      -0.42858881
O       -2.48651886       4.75038910      -2.55567646
O       -2.46236467       4.77618074      -2.56549811
O       -2.92716408       4.29807901      -2.86673856
