34
Properties=species:S:1:pos:R:3 pbc="F F F"
C        0.00000000       0.00000000       0.00000000
H        0.62911803       0.62911803       0.62911803
H       -0.62911803      -0.62911803       0.62911803
H        0.62911803      -0.62911803      -0.62911803
C       -0.91764456       0.86449343      -0.86687791
H       -1.55889428       1.51910520      -0.20568091
C       -1.84306598       0.00133294      -1.65341914
N       -1.76321697       0.69975036      -0.74328929
C        1.38236630      -1.32270122      -1.53931451
H        1.51856506      -1.43073916      -2.35090399
N       -1.78093982      -0.08057594      -0.76765305
C       -0.49833187       0.42888111       1.24265814
H        1.16501355      -0.72678941       1.48376870
C       -0.58164090       0.45208544       1.17026877
O       -0.30971885       0.30630207       0.02393848
O       -0.29651427       0.30630207      -0.00161666
C       -0.28455663       2.33350563      -1.18008733
C       -0.27525538       2.34557581      -1.09188497
C       -0.96520317       1.90668893      -0.64857256
C       -0.95736009       1.86173844      -0.53050685
C       -1.31801212      -0.64100498      -1.59573555
C       -1.03551412       1.85961628      -0.40675128
O       -1.23651099       1.32692957       1.04814804
O       -1.26747155       1.38304734       1.06033647
O       -1.29695106       1.41132808       1.06257355
C       -0.53870809       0.15301585       1.03162348
C       -1.77038026       2.26901436       1.21214163
C       -1.92307305       2.44752598       1.45170653
C       -0.70023900       0.26576614      -0.07369483
C       -0.70023900       0.26576614      -0.07369483
N       -0.41991478      -0.03838193       1.28412962
N       -0.39530200      -0.03838193       1.14840555
O        0.82916820       0.05256488       1.94885921
O        0.86170363       0.08124342       1.90121675
