34
Properties=species:S:1:pos:R:3 pbc="F F F"
C        0.00000000       0.00000000       0.00000000
H        0.62911803       0.62911803       0.62911803
H       -0.62911803      -0.62911803       0.62911803
H        0.62911803      -0.62911803      -0.62911803
C       -0.93026972       0.90950465      -0.87880456
C       -1.77196908       1.85084975       0.02003318
H       -1.10859251       2.43505859       0.65778762
H       -2.45725846       1.26664078       0.63418102
H       -2.31858826       2.49053574      -0.57402802
C        0.76252604      -0.80214453       0.43728390
N        0.33819225      -0.52933735       1.46065927
N       -0.86897433      -0.35183325       1.33341444
C       -0.04351413      -1.19174695      -0.85297960
H       -0.72273117      -0.69964427       0.61665761
N       -2.09445953      -1.67866516       0.49026033
C        0.30504566       0.00664127       0.70229822
C        0.26121908       0.05950511       0.75094491
O        0.02464855      -0.85946310       0.48922938
O        0.05178851      -0.81637216       0.49359423
H       -0.64730608      -0.23894289      -0.16447300
H        0.37268633       0.53809112       1.05502820
H        0.11191583      -0.09137672       0.80606294
C       -0.45248437      -1.13909531       1.02094269
C        1.57283044       0.38005936      -0.41402501
C        1.62441015       0.29138866      -0.37987238
C        1.61482072       0.20194180      -0.41091508
N       -0.40337235      -0.06945796      -0.32476157
N       -0.40337235      -0.06945796      -0.32476157
N       -0.38351554      -0.18114710       1.19981074
N       -0.39947158      -0.03120239       1.21133947
O        2.48206186      -1.13620377       0.14886731
O        1.77413964       1.99004281       0.05875927
O        1.79056215       1.99004281       0.05142453
O        1.79392946       1.99874175       0.01850176
