34
Properties=species:S:1:pos:R:3 pbc="F F F"
C        0.00000000       0.00000000       0.00000000
H        0.62911803       0.62911803       0.62911803
H       -0.62911803      -0.62911803       0.62911803
H        0.62911803      -0.62911803      -0.62911803
C       -0.82760954       0.91705233      -0.86843282
O       -1.46103001       0.37971979      -2.08126020
C       -0.85626751       1.44373798      -2.89552402
H       -0.33241707       1.01023924      -3.74743891
C       -1.80486298       2.58959579      -3.15489674
H       -2.37835503       2.77229500      -4.08754206
O       -1.88998294       3.30761075      -2.18468642
C       -0.07519621       1.91533327      -1.71543181
N        0.92642647       2.75375652      -1.37440813
H        1.38052154       3.43410945      -2.03275204
H       -1.59416294       1.38509417      -0.25083101
N        1.26845431       2.74148631      -0.00657606
H        1.88857079       3.46646118       0.16882759
O        1.43879056       2.99546480      -0.17109656
N        0.33111018       1.39511740       0.80433285
N        0.33111018       1.39511740       0.80433285
O        2.09151697       4.01428318      -0.84051418
O        2.10695291       3.99369812      -0.85615396
C        1.69545913       4.60057926      -0.44618553
C        2.52724290       3.44770050      -1.28199744
C        1.58306265       4.61589622      -0.38484380
C        1.63327098       4.74534321      -0.31547982
O        2.73150206       4.42517042      -1.00470662
O        2.71875191       4.40471268      -1.02117014
O        2.47016239       4.45079899      -0.89950716
O        2.19152260       5.85802174       0.22095963
O        2.15508366       5.87277699       0.22600833
O        2.22423315       3.97287059       0.25352731
O        2.12467146       5.85802174       0.28140035
O        1.43092453       5.56326199       0.43749022
