34
Properties=species:S:1:pos:R:3 pbc="F F F"
C        0.00000000       0.00000000       0.00000000
H        0.62911803       0.62911803       0.62911803
H       -0.62911803      -0.62911803       0.62911803
H        0.62911803      -0.62911803      -0.62911803
C       -0.91764456       0.86449343      -0.86687791
H       -1.57036769       1.51910520      -0.21700472
C       -1.81552649       0.04520226      -1.65749037
C       -2.58975339      -0.68965435      -2.22727776
C       -3.44071913      -1.47887731      -2.87680268
C       -4.10844040      -2.09008026      -3.36820793
N       -0.03019649       1.92066026      -1.73512030
C       -0.92339891       2.52147627      -2.54980302
H       -1.60282791       3.20182920      -2.12790799
O       -0.05092761       2.03440118      -0.55075037
N       -2.11540437       0.24587536      -0.52808410
N       -0.88273728       2.44551396      -0.02250433
H        0.08291227       2.01053047      -0.56509936
C       -1.42500520       3.06900239       0.99401248
C       -1.42500520       3.06900239       0.99401248
C       -1.37090909       3.06900239       1.02107084
C        0.32235819       0.90077847      -0.23984140
C        0.80277663       1.87856269       0.94558412
C        0.80277663       1.87856269       0.94558412
C        0.80277663       1.87856269       0.94558412
C        0.80874455       1.89070916       0.96030992
O       -2.55055285       2.75170493       0.10330355
O       -2.56596899       2.75170493       0.12313819
O       -2.58922887       2.80185103       0.13720942
O       -2.62545443       2.85232091       0.17372656
C       -1.85939538       1.86968136      -0.62862426
C       -1.85761309       1.85141098      -0.60407346
C       -1.88129187       1.81573915      -0.58008182
C       -1.89381468       1.78126216      -0.54315501
O       -2.16587496       0.62719393       0.55801737
