34
Properties=species:S:1:pos:R:3 pbc="F F F"
C        0.00000000       0.00000000       0.00000000
H        0.62911803       0.62911803       0.62911803
H       -0.62911803      -0.62911803       0.62911803
H        0.62911803      -0.62911803      -0.62911803
C       -0.84912646       0.87474650      -0.89101112
H       -1.46278977       1.53672481      -0.28002715
O       -1.87708187      -0.05062419      -1.44517243
C       -2.05711532      -0.50948393      -2.80881977
H       -1.78926587      -1.60727429      -2.80530357
O       -0.03439426       1.76285398      -1.66067004
N       -1.26591921       0.27590555      -3.63904285
H       -1.46697831       0.05358142      -4.62445974
C        0.68745291       1.09177113      -2.66897678
H        1.68457747       0.80659997      -2.40569115
C       -0.15739185       0.35991347      -3.65422797
H       -0.77754450       0.74761140      -4.48921299
O        1.12947130       0.60162181      -3.88759303
H       -3.15111637      -0.46033067      -3.08746743
H       -0.96152979       1.45995748      -1.39842403
H       -2.02569485      -0.46166062      -2.78142977
O       -2.79733515      -1.62498796      -3.41596341
O       -2.87686062      -1.75763643      -3.55650282
O       -1.59689081       0.17587501      -2.47628951
O       -1.32323742       0.62119699      -2.17393255
O       -1.30146813       0.62119699      -2.20000458
C       -0.77422345       0.62824589      -2.81487298
C       -1.84492326       0.64234149      -1.55466127
C       -1.58849871       2.76180077      -1.66863108
N       -1.31665647       0.62251306      -2.23331857
N       -1.28217316       2.21253538      -2.59044123
N       -1.29469228       2.21253538      -2.59142923
N       -1.32439494       0.72298563      -3.11759520
N       -1.32439494       0.72298563      -3.11759520
N       -2.90419388       0.80520844      -2.43304491
