34
Properties=species:S:1:pos:R:3 pbc="F F F"
C        0.00000000       0.00000000       0.00000000
H        0.62911803       0.62911803       0.62911803
H       -0.62911803      -0.62911803       0.62911803
H        0.62911803      -0.62911803      -0.62911803
C       -0.83340287       0.87474650      -0.90573508
C       -0.20011187       2.02289343      -1.57026410
H        0.91623938       2.13281131      -1.31693208
O       -0.73303026       2.83851933      -2.28779554
N       -2.15725040       0.62940347      -1.00438917
H       -2.53545499      -0.13703144      -0.46620852
O       -0.31433988       0.33475167      -0.38893831
H        0.18986511       1.32920051      -0.94832563
O        1.81817508       2.51967907      -0.47970819
O        0.06794119       2.31636429      -1.83345699
C        0.55329251       2.85577512      -2.27614188
O        0.55467975       2.78838038      -2.28329849
C        0.57315511       1.58937657      -2.44500065
O        0.61888415       1.47377968      -2.47461319
H        0.51829731       3.98011637      -2.16875744
O        0.48127079       1.16185808      -2.36032844
C        0.09670496       1.61782134      -1.91431427
H        0.47594368       4.52006388      -2.16187549
H        0.69963938       1.64001656      -2.39195442
C       -0.92228800       0.88350099      -2.83855891
C       -0.88480002       2.29716492      -2.24251962
C       -0.78273457       0.62831700      -2.80560350
C       -0.78692919       0.61819172      -2.85900211
O       -0.08464986      -0.59103012      -2.40569830
O       -0.06213784      -0.52995527      -2.29567814
O       -0.06952041      -0.46553349      -2.21606946
C       -0.12499294      -1.34353638      -3.32048726
C       -0.14614910      -1.28884137      -3.36016512
C       -0.16724201      -1.25121939      -3.38417697
O       -0.54682910      -0.47417879      -3.96338964
