34
Properties=species:S:1:pos:R:3 pbc="F F F"
C        0.00000000       0.00000000       0.00000000
H        0.62911803       0.62911803       0.62911803
H       -0.62911803      -0.62911803       0.62911803
H        0.62911803      -0.62911803      -0.62911803
C       -0.87161988       0.89791858      -0.91461408
C        0.03114241       1.72867429      -1.86190653
H        0.71900398       2.39921713      -1.26682854
O       -0.02265659       1.73937809      -3.09068227
C       -1.71193385       0.11004055      -1.82786024
N       -2.36270523      -0.51211864      -2.51073194
C       -1.68765473       1.84347367      -0.10214221
N       -2.87939334       2.08154726      -0.59120119
O       -3.56089115       3.09563398       0.18962348
H       -4.43980455       3.14043736      -0.34554291
C       -1.14626455       2.47468615       1.11003160
H       -0.13348448       2.31991363       1.33986044
H       -2.00159669       1.85058916      -0.02460545
O       -0.31586659       1.80666661      -0.42608818
O       -2.92611814       1.83242166       0.17890048
O       -2.70643139       1.88914704       0.14787266
C       -3.17000437       2.52129698      -2.15474272
C       -3.17000437       2.52129698      -2.15474272
C       -3.17000437       2.52129698      -2.15474272
C       -3.17000437       2.52129698      -2.15474272
C       -3.17000437       2.52129698      -2.15474272
C       -4.13276339       1.33242536       0.27944571
C       -3.16856170       2.54890823      -2.14698148
O       -2.77691388       1.96910203       1.59451151
O       -2.77691388       1.96910203       1.59451151
O       -2.77691388       1.96910203       1.59451151
O       -2.77691388       1.96910203       1.59451151
O       -2.77691388       1.96910203       1.59451151
O       -2.77691388       1.96910203       1.59451151
O       -2.77691388       1.96910203       1.59451151
