17
Properties=species:S:1:pos:R:3 pbc="F F F"
C        0.00000000       0.00000000       0.00000000
H        0.62911803       0.62911803       0.62911803
H       -0.62911803      -0.62911803       0.62911803
H        0.62911803      -0.62911803      -0.62911803
C       -0.87604135       0.88633257      -0.88761693
H       -0.24096203       1.51777220      -1.50895226
C       -1.79454446       1.74949312      -0.09300762
N       -2.32916665       1.32003069       0.99962217
O       -3.15869546       2.30929899       1.51472259
H       -3.50467396       1.90809393       2.32726979
O       -1.61352921       0.04634416      -1.81121278
C       -2.95974445       0.03459602      -1.91153371
H       -3.46058059       0.74086720      -1.24938297
N       -3.53781843      -0.72455335      -2.71901226
H       -4.53706932      -0.59308553      -2.65333486
C       -2.12800932       3.08729458      -0.54199100
N       -2.37985754       4.14830971      -0.90711892
