17
Properties=species:S:1:pos:R:3 pbc="F F F"
C        0.00000000       0.00000000       0.00000000
H        0.62911803       0.62911803       0.62911803
H       -0.62911803      -0.62911803       0.62911803
H        0.62911803      -0.62911803      -0.62911803
C       -0.87604135       0.88633257      -0.88761693
H       -0.25193328       1.51777220      -1.51997161
N       -1.75318980       0.07697517      -1.74578285
C       -2.99674273       0.22034609      -1.53149414
H       -3.74596334      -0.34775895      -2.08287835
N       -3.47863507       1.12100375      -0.58878851
H       -4.30033302       0.86880654      -0.05840331
C       -2.35422921       1.74362826       0.08244050
H       -2.36965847       2.83311820       0.05289765
O       -2.07142115       1.29109764       1.40914083
C       -1.74620116       2.25189781       2.29997945
H       -1.45231843       1.77526796       3.25839281
O       -1.75156605       3.44451213       2.09567261
