8
Properties=species:S:1:pos:R:3 pbc="F F F"
C        0.00000000       0.00000000       0.00000000
H       -0.96738178      -0.03628503       0.99747390
H        0.27047393      -0.51547515      -0.59163260
O       -0.18552017       0.63340217       0.39659032
O       -0.42639419       0.83202767       1.00140715
H       -1.02736831       1.59164453       2.64758682
H       -0.74270642       1.29042816       1.86784530
H       -0.72977924       1.25114369       1.75000525
