11
Properties=species:S:1:pos:R:3 pbc="F F F"
C        0.00000000       0.00000000       0.00000000
H       -1.09719765      -0.48122334       0.16935249
O        1.76761079       0.70547730      -0.32054573
O        1.66458917       0.91857439      -0.33205393
H       -0.75036705      -0.21054697       0.12930301
H        1.49011648       0.76861906       0.62679648
H        1.22284126       0.65537447       1.44694257
H        0.89883828       0.52219224       1.21549296
H        2.60865545       1.36541510       2.16068077
H        2.60865545       1.36541510       2.16068077
H        0.77587116       0.47172046       1.24469972
