11
Properties=species:S:1:pos:R:3 pbc="F F F"
C        0.00000000       0.00000000       0.00000000
H        0.45700029      -0.76001316       0.56216562
C        1.28403842       0.92099625      -0.39988551
H        2.23061776       0.34246725      -0.43718040
O        1.03928232       1.69229198       0.57893836
C       -1.20720899      -0.71984631      -1.14042294
H       -2.36138535      -0.87214071      -1.02387750
O       -0.88977712      -2.39999485      -1.11955929
O       -0.74131429      -2.30021667      -1.05171776
H       -2.58045483       0.15790302      -0.83435750
H       -2.57710457       0.15790302      -0.83055264
