8
Properties=species:S:1:pos:R:3 pbc="F F F"
C        0.00000000       0.00000000       0.00000000
H        0.32983488      -1.12681210      -0.58103526
H       -0.97328073       0.17991826      -0.02129613
O       -0.82960898       0.78402579       0.40143678
H       -1.09577227      -0.07903880      -0.20878944
C        0.08060187       1.17581379      -0.02590743
C       -0.27068025       0.29336897       1.24202478
O       -1.49883533      -0.90618140      -0.79314768
