11
Properties=species:S:1:pos:R:3 pbc="F F F"
C        0.00000000       0.00000000       0.00000000
N       -1.11435568      -0.48615801       0.53922188
N        1.38301492       0.86571330      -0.51176858
C       -2.35916615       0.09780711      -0.13184398
H       -3.28861332      -0.43757880       0.06203535
N        1.62921894      -0.21737742      -0.29544920
H       -2.23698568       1.19935536       0.24307233
O       -3.27269697      -0.13083847       0.52821791
H       -3.94004488       0.52359635       0.91092038
H       -3.12876534      -1.49344242      -1.59340906
H       -3.12702346      -1.46433711      -1.61144948
