10
Properties=species:S:1:pos:R:3 pbc="F F F"
C        0.00000000       0.00000000       0.00000000
C       -1.59665596       0.44508010      -0.20369205
H        0.17611346      -0.57559884       0.76063764
N       -0.14786822       0.65867490      -0.88112521
C        0.31128123       1.57085109      -1.01534867
O        0.26462469       2.46148872      -1.60652304
C       -2.40475154       1.26371515       0.38018873
H       -2.98028898       1.97736454       0.69698679
C       -0.55229938       0.08115682       0.11155128
H        0.19497722       0.22109328      -0.01049545
