6
Properties=species:S:1:pos:R:3 pbc="F F F"
C        0.00000000       0.00000000       0.00000000
H        0.60943490      -0.64418250      -0.76322800
O       -1.12010086       1.10180521       1.15494359
O       -0.95867151       1.14526331       1.22238147
H        0.60187817      -0.38551587      -0.38107756
H        0.58942157      -0.39785564      -0.38780546
