5
Properties=species:S:1:pos:R:3 pbc="F F F"
C        0.00000000       0.00000000       0.00000000
H        0.78814596       0.68035299       0.13581292
C       -0.72540295      -0.55186284      -0.18476380
H        1.89298797       1.66541171       0.30634552
H        0.12287277       0.09494406       0.03921913
