6
Properties=species:S:1:pos:R:3 pbc="F F F"
C        0.00000000       0.00000000       0.00000000
H        0.28682524      -1.07919061       0.51573026
O       -0.44296029       1.69336379      -0.81314248
O       -0.54440272       1.73938239      -0.63487804
H        0.14900373      -0.67241299       0.38698661
H        0.27801186      -0.72345811       0.15302844
