6
Properties=species:S:1:pos:R:3 pbc="F F F"
C        0.00000000       0.00000000       0.00000000
O        0.29891372       0.16502249      -0.75651699
H        1.12847590      -0.17788166      -1.26163375
H        0.16775754      -0.65053397      -0.14124048
O        0.08842003       1.06333232      -0.52688265
O        0.08191647       1.05387330      -0.54657096
