12
Properties=species:S:1:pos:R:3 pbc="F F F"
C        0.00000000       0.00000000       0.00000000
H        0.67280054      -1.30184340       0.11593665
C        0.36428165       0.70458692      -0.59241515
C        1.42207289       1.32729304      -0.67124236
O        3.12300539       1.22318935      -0.52951038
N        0.70072162      -2.23843384       1.71109021
C        1.30416489       2.42528343      -0.00444895
H        2.00515556       3.02815437      -0.22275707
C        0.19108292      -1.55100358       0.29321098
H        1.03389001      -1.18841076       0.04683261
H        0.22791967      -1.03911877      -0.30738622
C        0.97874308      -0.94535577      -0.24500960
