12
Properties=species:S:1:pos:R:3 pbc="F F F"
C        0.00000000       0.00000000       0.00000000
H        0.37208894       0.91965103       0.76045424
O        0.46117228      -0.64978278       0.82921755
O       -0.51026344       1.09916770      -0.63903040
O        0.25664118      -0.30063230      -0.86386061
C        0.22294898      -0.66892409      -1.68870676
O        0.38533613       0.06678993      -0.66633010
O       -0.16246979      -1.66711283      -1.89648247
C        0.22286505       0.70694405       0.45547894
O        0.16442972       0.97212452      -0.97981381
O        0.08291736       0.99589556      -1.05062580
C       -0.09165804      -0.21548238      -1.01616478
