12
Properties=species:S:1:pos:R:3 pbc="F F F"
C        0.00000000       0.00000000       0.00000000
N       -1.78173840       0.10897408      -0.13277645
H        0.47953972      -0.33847412       1.12622190
O       -0.27386355       1.17550993      -0.08528879
O       -0.67106271       0.12298482      -1.29823804
C        0.09806806       0.11175882      -2.33381033
N       -0.15289226       0.70861953      -3.56379986
H       -0.68146086       1.47363758      -3.54760575
C        1.29742217      -0.40923500      -2.25498080
H        1.55870044      -0.84677368      -1.45323694
C       -2.67494416      -0.48015013      -0.13668466
C       -1.95867777       0.01142475      -0.08960691
