14
Properties=species:S:1:pos:R:3 pbc="F F F"
C        0.00000000       0.00000000       0.00000000
H        0.81961280      -0.25376257      -0.67226380
C       -0.89715052       0.78055900      -0.31424123
H       -1.56145501       1.04440892       0.37072760
O        0.33552459       0.49568599      -1.64444983
C        0.75853634       0.96509838      -2.90493059
H        1.50398290       0.38949955      -3.13708353
N        1.81776786       0.23021030      -3.47595263
H        1.45211697      -0.41966283      -3.15962315
O        1.00757766       0.57677472      -2.60697985
C       -1.15804565       0.36230451      -2.84621072
C        0.12371707       1.65545130      -3.15255332
H        2.52141333      -0.23783159      -4.16437054
H        1.35434985       0.44264728      -2.92584872
