10
Properties=species:S:1:pos:R:3 pbc="F F F"
C        0.00000000       0.00000000       0.00000000
H       -1.29032624       0.76627195      -0.58308053
H        0.89167535       0.90572512       0.51134682
H       -0.11709493      -0.85320818       0.60068619
C       -2.37537718       1.38030839       0.11729223
C       -3.70629907       0.14271426       0.70474726
H       -4.22788572      -0.73127592       0.44670117
O       -3.25390887       1.68726981      -0.15630716
C       -1.00586975       0.12127488      -1.17303717
C       -1.34092677       0.91013801      -0.63868582
