5
Properties=species:S:1:pos:R:3 pbc="F F F"
C        0.00000000       0.00000000       0.00000000
H       -0.23199378       1.53243113      -1.24817038
H       -0.75507778      -0.23719846      -0.40705550
C        1.71326685       0.53569514       0.90434647
C        1.72024953       0.56933075       0.86988449
