5
Properties=species:S:1:pos:R:3 pbc="F F F"
C        0.00000000       0.00000000       0.00000000
H        0.39390442       0.35759419      -0.99692774
O        0.02359434       1.14688051       1.34796321
O       -0.32036540       0.68193191       0.29737991
H       -0.40069777       0.86714780       0.38522127
