26
Properties=species:S:1:pos:R:3 pbc="F F F"
C        0.00000000       0.00000000       0.00000000
H        0.62911803       0.62911803       0.62911803
H       -0.62911803      -0.62911803       0.62911803
H        0.62911803      -0.62911803      -0.62911803
N       -0.84168684       0.85157442      -0.85280848
C       -1.78889704       1.75648034      -0.14285350
H       -1.75082147       1.69012177       0.94445801
H       -1.79179728       2.79487228      -0.47426432
C       -2.14556503       0.38216203      -1.11290753
C       -2.59052324      -0.82932931      -1.89674354
H       -3.67708778      -0.91461295      -1.88248003
H       -2.24374485      -0.83881485      -2.93006539
H       -2.19956064      -1.72596335      -1.41581225
O       -3.08741236       1.15848446      -0.40697205
C       -1.26892781       1.36722064      -1.80663991
O       -0.51905721       2.04782248      -2.81628013
C       -0.98980659       3.51479101      -2.42322063
O       -0.26110107       4.50887966      -2.86692619
H       -1.88949072       3.50513148      -1.77316356
N       -0.80991876       2.33669662      -2.72757673
O        0.56892449       0.92829859      -3.28517151
H       -1.41527677       2.93423414      -2.54484677
O        0.70969409       0.93054128      -3.12924957
C       -0.57535118       0.94300550      -4.52876043
C       -0.57535118       0.94300550      -4.52876043
N       -0.45347565       0.94143909      -4.39630747
