24
Properties=species:S:1:pos:R:3 pbc="F F F"
C        0.00000000       0.00000000       0.00000000
H        0.62911803       0.62911803       0.62911803
H       -0.62911803      -0.62911803       0.62911803
H        0.62911803      -0.62911803      -0.62911803
N       -0.85648292       0.85157442      -0.83794755
C       -0.16015321       1.74433398      -1.77549934
H       -0.66934192       2.69144368      -1.95385075
H        0.91064650       1.88621509      -1.62935901
C       -0.91615307       0.42272100      -2.20082045
C       -1.74982405      -0.77290034      -2.59525681
H       -1.85426474      -0.85818398      -3.67688441
H       -1.34906459      -1.71047688      -2.20997620
H       -2.76428652      -0.62841594      -2.16853738
C       -1.07905769       1.69397628      -2.99923754
H       -0.66864526       1.66604459      -3.98700309
C       -2.45271873       2.73242760      -2.68751454
O       -3.30470610       2.59583020      -1.83924711
H       -2.43532658       3.62299418      -3.34984970
C       -0.57199013       2.76077127      -2.15820909
O       -0.31572664       2.91798162      -2.69286132
O       -0.25538531       2.98234439      -2.78144741
O       -1.32879829       2.27444434      -0.47732580
N       -1.11669314       2.38431239      -0.85001826
N       -1.11863303       2.40508771      -0.84523153
