20
Properties=species:S:1:pos:R:3 pbc="F F F"
C        0.00000000       0.00000000       0.00000000
H       -1.76183069       0.10775649      -0.13129292
H        1.03024399      -0.52482057       1.31364274
C        0.49856916       1.29123485      -0.26877403
N        0.98588836       2.37251616      -0.36598495
C        0.12241257      -0.89275956       1.16141880
N       -0.68324423      -0.73488808      -0.99056304
H       -0.97791052      -1.67263317      -0.87264168
N       -0.21758217      -1.84319961       2.14588070
H       -1.11611032      -1.85181487       2.56141949
N       -0.87605864      -0.18096697      -2.13951588
N       -0.50555772       1.05459547      -2.15411353
H       -0.13685820       1.23400283      -1.14417636
H       -0.43851966       0.98234576       0.17548944
C       -0.82776320       1.15473330      -2.75145578
O       -1.59504366       0.30959511      -1.71811652
H       -1.20884180       1.32698190      -3.29783344
C       -1.47795725       1.59170854      -4.31631899
C        0.58971941      -0.22449610       0.13897610
H       -0.75966185      -1.42102969       1.71690273
