31
Properties=species:S:1:pos:R:3 pbc="F F F"
C        0.00000000       0.00000000       0.00000000
H        0.98383123      -0.25500599       1.39998031
H       -0.45721343       1.62878489      -0.36181849
O        0.69806629      -1.32942903       0.29363173
H       -0.87763125      -0.45083857       0.46325725
C        1.91905832      -1.69482040       0.09421682
H        2.13001561      -2.60555673       0.61475086
C        2.23188066      -2.80805373       0.82889491
C       -0.43608508       0.59593403      -0.33285484
C        1.39338815      -0.27577806      -1.00436664
C        1.38280785      -0.29718864      -1.02647805
C        0.82629651      -1.22085154      -1.50370824
C       -1.72565627      -1.19332147       0.14945558
C        0.40724289      -0.63914192       2.89747238
C        0.43132937      -0.61115623       2.91338563
C       -0.28469104       0.71223712       1.73492694
C        1.88967848      -0.58541489      -2.19882011
O        0.29518098      -0.03628251       0.05246109
C        2.10031700      -0.92904699      -1.92218459
C        1.20487225      -0.34380442      -0.30688730
C        1.84036875      -0.00779492      -1.83637702
C        1.04034054      -2.10434532       0.69803369
C       -0.97890425      -1.00027871       1.67562497
C        1.50238526      -0.19926947       3.63182497
C       -0.26707804      -0.03613687       2.15294337
C       -0.00584096       0.95251715       1.46460748
C       -0.81549948      -0.44450945       0.56611311
C       -1.66809297      -0.51304138      -0.72678441
H       -0.02972066      -0.75433695       1.86961198
C       -0.02958876      -0.29313052       1.86983085
C       -1.68265963      -0.63697612      -0.70386761
