31
Properties=species:S:1:pos:R:3 pbc="F F F"
C        0.00000000       0.00000000       0.00000000
C       -1.24841344      -0.54464316       0.60409069
H        0.62137789       0.74705803       0.57679546
O        0.32147679      -0.37658146      -1.08209896
H       -1.66164160      -1.37178576       0.02687591
C       -2.11009359       0.16451538       1.59135914
H       -3.13135624      -0.21619701       1.60476542
C       -1.92439044       1.57248187       1.97088885
H       -0.95201421       2.01393461       1.66806364
O       -2.72887039       2.29660988       2.59614849
O       -1.13267159      -0.82636893       2.06432056
C       -0.14685893      -0.81357652       3.15469074
H       -0.40944415      -1.58933377       3.87396049
H        0.82989210      -1.01166832       2.71331072
C       -0.12116939       0.52883118       3.88829780
H        0.17399451       1.30332077       3.21158242
C       -1.27923536       0.63415253       5.16919136
H       -1.88158584      -0.34467620       5.20878172
H       -1.89769661       1.53078651       5.20984077
H       -0.77045560       1.61717725       5.08609629
H       -1.66398549       1.47352457       4.58994961
N        0.39407462       0.12181994       5.38019657
C       -0.77135104       0.86146569       4.43117714
C       -0.65661842      -0.48556244       5.52624178
C       -0.66296250      -0.48556244       5.53708363
C       -3.11318755      -0.06651255       4.08544779
C       -3.05253601      -0.06651255       4.02235937
H       -0.43354332      -1.66549635       0.88145030
H       -0.43354332      -1.66549635       0.88145030
H       -2.74701452      -1.02392721       2.71035814
H       -0.26347685      -1.71072173       0.97578132
