31
Properties=species:S:1:pos:R:3 pbc="F F F"
C        0.00000000       0.00000000       0.00000000
H       -1.09958601      -0.37341809      -1.28232837
H       -1.50934255      -0.83290428      -0.30108526
H       -0.63932866      -0.80422539      -0.47050992
C        1.44439352      -0.49050519       0.27500877
C       -0.61204553       0.62348843       0.97609484
H        1.87306511       0.21576598       0.98600876
H        2.11182690      -0.39583254      -0.72981381
H        1.81909537      -0.59333646      -0.41283152
N        2.90420103       0.57259005      -1.37973595
O        0.80512899      -1.56089699       0.88958240
O        0.75061017      -1.46553946       0.94199550
C        0.63232815      -0.09561101      -0.76218641
C        2.80412745      -0.55275035       0.46525729
O        2.68914533       0.16099852      -1.35839474
C        1.48510969      -2.10532093      -0.34316331
C        2.40445709      -1.69676566       1.01333666
C       -1.41944587       2.10627866       0.90169728
C       -1.42062426       2.10627866       0.91583896
C        2.62652779      -0.68380666      -1.42281711
H        2.10280418      -2.76844382      -1.52588034
C        2.74940586      -0.15330377      -1.33211994
C        1.63546181      -1.28388679       0.15065643
C        1.55304730      -1.25201464       0.15590504
H        1.04319775      -2.88024616       0.39204925
H        0.90232289      -2.93749714       0.51485145
H        0.97247815      -2.95013571       0.59478104
C        1.65264225      -2.42333078      -0.59906346
H        2.04510713      -2.49912977      -0.55443156
H        2.05646300      -2.47519994      -0.53214169
C        0.02320933      -3.40765500       1.37264168
