31
Properties=species:S:1:pos:R:3 pbc="F F F"
C        0.00000000       0.00000000       0.00000000
C       -0.69016367      -0.50936234      -1.26693392
H        0.60749394       0.32007161       0.89744329
H       -0.22881183      -0.22419119      -2.18928480
N        1.14172268      -0.53816396       0.62844819
C        0.08617952      -0.91637862      -0.75426942
H        0.91460371      -1.40663075      -0.48469180
C        1.17585599       0.27185452      -2.22002006
N       -0.72330821      -0.28030419      -3.37942076
C        0.56486672      -1.10622311      -1.29439497
C       -0.27708912      -0.70699108       0.01657718
N        1.49746466      -1.94776869       1.02909136
C        1.46076727      -1.76423442      -0.36843026
C        1.62330377      -1.57644606       0.46536660
N        0.83045465       0.64590484       0.74673623
C        0.60668147      -0.49236280      -1.02645755
C        0.53714693      -0.47153673      -1.07388306
C       -0.74150574      -0.22716950       0.98033780
C       -0.34878004       0.81591129       0.46793738
C       -0.92116892      -1.58120382       0.63578004
C       -0.92116892      -1.58120382       0.63578004
C       -0.53215122      -1.10070741       1.32502246
C       -0.55501121      -1.10070741       1.32035828
C       -1.81888843      -1.04459441       1.06823874
C        1.53539693      -0.89370620      -0.96789408
H        1.29854214      -3.22555447       1.63949418
H        1.33085108      -3.22555447       1.64909267
C       -3.49273729      -0.94049066       0.73433757
C        1.53936231      -0.77148455      -0.90324163
C        2.20969296      -1.77581501      -1.87508261
H        1.42311084      -2.82795072       1.63295436
