31
Properties=species:S:1:pos:R:3 pbc="F F F"
C        0.00000000       0.00000000       0.00000000
H        1.31589174      -0.40741688      -1.07932234
C       -0.14854681       0.83669508      -1.12515485
H       -1.09479296       0.93896639      -1.61409056
O        1.13974237      -0.05611300       0.60161209
O       -1.00189698      -0.75429910       0.55148298
N       -0.99663019      -0.74328744       0.52607077
C       -0.20019096       0.43897009      -2.43004966
C       -1.99559855       1.07588959      -0.12000287
C       -1.27945495       0.57921064      -0.66679168
C       -0.81953883       0.51650488      -1.58627224
C       -0.80225754       0.49549183      -1.62082160
C       -0.34665784      -0.28784269      -2.99535179
O        0.39140040       0.54961640      -2.30623102
C       -0.85573232       0.45156410      -2.41293573
C       -1.31132734       1.11336565      -0.43128324
C       -1.27709579       1.12195349      -0.39792395
H       -0.47663203      -0.27385616       0.18691707
H       -0.30978143       1.66246676      -1.00430596
H       -0.33996403      -0.25014961       0.23301482
C        0.28500164       0.55278993      -2.42934537
H       -0.26369441      -0.14618385      -1.19382608
H       -0.49880522      -0.15210456       0.27559173
H       -1.75403285       2.13458776      -2.25906372
C       -0.24949157       0.74529040      -2.83318925
H       -1.36598015       1.39149702      -2.94321489
C       -0.15310812       0.52825302      -2.76025295
C       -1.74979222       0.68120956      -2.19083762
C       -1.17171335       1.37207675      -2.41070747
C       -0.87994194       1.44994783      -2.66710329
H       -0.49888945       0.14304560      -2.55651498
