12
Properties=species:S:1:pos:R:3 pbc="F F F"
C        0.00000000       0.00000000       0.00000000
H        0.82931912       1.05031919      -1.15842819
H       -0.89447641      -1.00284719       1.02484465
C       -0.62619829       1.14573658      -0.53222322
H        0.05994014      -0.86945975      -0.62076265
H       -1.37861395       1.33403039      -2.34311008
H       -1.58270824       0.94764477      -0.04854175
H       -1.82824898       0.23952210       0.43625301
H        0.89168227       1.02636981      -1.00377536
C       -0.90891445       1.31027544      -1.56406069
H       -0.51009405       1.29357684      -2.01305509
H       -0.32821131       1.09866118      -1.40175247
