9
Properties=species:S:1:pos:R:3 pbc="F F F"
C        0.00000000       0.00000000       0.00000000
H        1.68652940       0.04516050       0.38272178
H        1.11769962      -1.32798088      -0.22295983
H        0.70453650       0.85749644       0.21266726
O       -1.17484832       0.28169972      -0.06689920
C        0.64980000      -1.11659563      -0.65838599
H        0.00178844      -0.81272423      -1.15300000
C        0.87404454      -2.38508034      -0.53930151
C        0.24404877      -2.06723785      -1.11391556
