8
Properties=species:S:1:pos:R:3 pbc="F F F"
C        0.00000000       0.00000000       0.00000000
H       -1.06437218      -0.52482057      -1.28614616
H       -0.34125507       1.87357318      -0.57737660
H       -1.30918276       0.77883559      -0.86136657
H        0.83166754       0.06514095       0.67006361
C       -1.33639348      -0.18175368      -0.87926972
C       -0.50194240       0.75317091       1.53087497
C        1.59913790       0.26302922       0.97719443
