30
Properties=species:S:1:pos:R:3 pbc="F F F"
C        0.00000000       0.00000000       0.00000000
H        1.25203466      -1.14372575      -0.34234130
H        0.97484672       0.16917774      -1.46763396
H       -0.43271768      -0.13407114       0.92502964
C       -0.61051077      -0.19304273       1.58559394
C       -0.06166029      -0.03386714       2.87459540
C       -0.78084087      -0.32057697       3.20164466
C       -0.74028379      -0.23611489      -0.05873001
N       -0.85780042      -0.26568514      -0.06439626
H        0.35176402       0.39994961       0.58344007
O       -0.58874059      -0.54733723      -0.82237810
C        1.00860667       0.21584237       0.05621858
C       -2.24512482      -1.04302323      -1.09290242
N        0.57522535      -0.57944560      -0.42608118
C       -2.24013662      -1.04302323      -1.12184930
C       -2.20932770      -1.69141150      -2.45613718
H       -2.40386748      -2.49575901      -3.92966223
H       -2.40386748      -2.49575901      -3.92966223
H       -2.40386748      -2.49575901      -3.92966223
H       -2.40386748      -2.49575901      -3.92966223
H       -2.40386748      -2.49575901      -3.92966223
H       -2.40386748      -2.49575901      -3.92966223
H       -2.40567040      -2.46976948      -3.94331741
C       -2.33519149      -3.56734443      -3.37191033
C       -2.33519149      -3.56734443      -3.37191033
C       -2.33973193      -3.49649572      -3.40878654
C       -2.33859682      -3.51420808      -3.39956737
C       -2.33746171      -3.53192019      -3.39034843
C       -2.33746171      -3.53192019      -3.39034843
C       -2.33178616      -3.62048101      -3.34425330
