31
Properties=species:S:1:pos:R:3 pbc="F F F"
C        0.00000000       0.00000000       0.00000000
H       -0.08160027      -1.13392138      -1.33043623
H       -1.50826788       0.72382325       0.51352167
N       -0.40976182       0.37578622      -1.29575396
H        0.25560877       0.81638479      -1.88163316
N        0.55981606      -1.25991464       0.29549846
C        0.92406857      -1.12514591       1.65095258
C       -1.46216774      -0.32660064      -1.96208167
H        1.31234431      -1.89765286       2.24674988
C        0.58523595       0.50389552       1.79347777
H        1.64121580       0.83678180       1.71478558
C        1.34648943      -0.45280147       0.63428533
H       -2.07054305       0.34752402      -2.60046625
H       -1.09765244      -1.21445096      -2.63122272
C       -0.75180686      -1.01444554      -2.37879086
H       -1.77851200       1.64202738       1.25377047
H       -1.77851200       1.64202738       1.25377047
H       -1.79712486       1.62817335       1.26372933
C       -2.79273748       0.85663790       1.78912878
C       -3.73030806       0.15739709       2.28402495
C       -3.73030806       0.15739709       2.28402495
C       -3.73030806       0.15739709       2.28402495
C       -3.73030806       0.15739709       2.28402495
C       -3.73030806       0.15739709       2.28402495
C       -3.73030806       0.15739709       2.28402495
H       -3.41365671       0.43643770       2.14520597
C       -4.95642233      -0.90460545       2.82521892
C       -4.95642233      -0.90460545       2.82521892
C       -4.93932772      -0.92777008       2.81767344
C       -4.93932772      -0.92777008       2.81767344
C       -4.93932772      -0.92777008       2.81767344
