5
Properties=species:S:1:pos:R:3 pbc="F F F"
C        0.00000000       0.00000000       0.00000000
H       -0.75493461       1.15694797       1.07426345
H        0.55635840      -0.80856943       0.37306866
C       -0.87944376       1.35590744      -0.49415639
C       -1.02358508       1.28598189      -0.24242783
