5
Properties=species:S:1:pos:R:3 pbc="F F F"
C        0.00000000       0.00000000       0.00000000
H        0.44061905      -1.50528312      -0.77619201
H       -0.86451209      -0.19304273      -1.46268606
C       -0.31471863      -1.07177269      -1.13152671
C        0.22000146      -1.47814584      -0.48122945
