31
Properties=species:S:1:pos:R:3 pbc="F F F"
C        0.00000000       0.00000000       0.00000000
H        1.48336565       0.74285531      -0.49060041
H        1.69263518      -0.34793884      -0.27644464
H        1.08529460       0.08997815       0.36951157
C       -0.34411302      -1.38881040      -0.23513786
O       -0.89773983       0.96080017       0.30565453
O       -1.28345752      -2.06602788       0.17947896
N        0.65576303      -1.84767008      -1.17969787
C        0.10540462      -2.87574410      -2.07472157
H        0.86026871      -3.53441906      -2.55266166
H       -0.57225686      -3.48032475      -1.50889766
C        0.29218522      -1.43458176      -2.40375328
C        0.73928869      -3.12543154      -2.38832498
C        0.36237568      -2.11809921      -1.91780889
N        0.68730187      -1.59456229      -1.98490560
H       -0.05106303      -1.04889774      -1.37120545
H        1.55969620      -2.50615048      -2.45886135
C        2.38153481      -2.45196772      -2.79612255
C        0.03936690      -3.15803075      -2.44062686
C       -0.25195527      -1.68498886      -1.40486383
C       -0.02557850      -1.64108443      -1.27434301
C        1.26328611      -1.46080232      -2.24990702
C       -0.40119457      -4.33006525      -3.00608683
C       -0.39954174      -4.30370998      -3.02055335
C       -0.32523012      -3.15237784      -1.66410398
C       -0.58556986      -3.97384453      -3.99806046
C       -0.46495265      -5.54575348      -2.39995074
C       -0.59180617      -6.92464209      -1.74920380
H       -0.46510687      -5.94900846      -2.05413914
C       -0.57575214      -7.01476574      -1.70236635
H        0.01749700      -8.12854576      -1.27563977
