8
Properties=species:S:1:pos:R:3 pbc="F F F"
C        0.00000000       0.00000000       0.00000000
H        0.80284619       1.53210127      -0.03163186
H        1.67148376       0.26090208      -0.52054685
H       -0.40997106      -0.20172653       1.01159751
H        0.36467022       0.15477248      -0.97239935
N        0.37176037      -0.82321137      -1.78258204
N        0.43330076      -0.52535874      -1.57307482
C        0.35349783       0.06448716      -0.73924315
