31
Properties=species:S:1:pos:R:3 pbc="F F F"
C        0.00000000       0.00000000       0.00000000
H        0.80384386       1.14688051      -1.08231091
H       -1.30447578      -0.32894138       1.21088254
N        0.76133066      -0.99163604      -0.56029642
C        0.26500776       1.44433820      -0.06749887
N       -0.54809558       1.05711186       0.44159329
H       -0.61842209       1.15364838       1.44450629
O       -0.83549392      -0.12695694       0.27342063
C       -1.73175716      -0.52028561       2.60433722
H       -2.08753729       0.21085221       2.85204220
C       -1.78428805      -0.82323980       1.74785662
C        1.98897481      -1.15955031      -0.91917449
H       -0.02758294       1.40275478       0.58791167
C       -2.10522079      -0.35269633       0.77920818
C       -0.53092527       0.64599246       0.84443992
H        0.86593735      -0.52222365      -1.88574266
H        0.88831335      -0.49915496      -1.87537670
N       -1.27045369       1.86234212      -0.43127632
H       -0.30648875       2.12843418      -0.91265410
H        0.42849663       1.03797066       2.17379332
H        0.50150913       0.92406374       2.11990809
C       -0.66233510       2.24464703       1.64071989
C       -0.48401633       2.49462056       2.50240827
H       -1.08976555       3.72465205       2.90859604
H       -1.07517922       3.72465205       2.92954659
H       -0.60075653       3.79898190       3.71967244
C       -1.78341913       3.43205786       1.51360798
C       -0.38675302       3.80318642       3.98734760
C       -0.55197692       3.73257113       3.67405748
C       -0.38646770       3.67375875       3.87399626
C        0.21943745       2.58289576       3.76726341
