15
Properties=species:S:1:pos:R:3 pbc="F F F"
C        0.00000000       0.00000000       0.00000000
H        1.36904013      -0.29133117      -1.08339834
H        0.90203494      -1.42201328       0.47613838
N       -0.02263705       0.30963686       1.29325593
N        0.02492519      -1.20296574      -0.40638757
N        0.40003952       1.55447316       0.90773606
H        0.64990425       2.39384508       1.55667472
N        0.56349427       1.60884619      -0.33033705
C        0.66393262      -0.74419260       1.93056583
O        1.27052593      -0.80030560       3.06766510
O        0.92500478      -1.87350869      -0.53726149
N        0.71188724      -1.99860549       1.43393004
O        0.40459943      -1.41640055       2.37685680
C        1.01903319      -0.94334674       0.45573056
H        0.42086715       0.72862947       0.82743514
