31
Properties=species:S:1:pos:R:3 pbc="F F F"
C        0.00000000       0.00000000       0.00000000
H       -1.73949683      -0.07612228       0.17564940
H        1.08334184      -0.64699215       1.24123669
O        0.22608531       1.06707525      -0.76100880
N       -0.13312846      -1.13655281      -0.71625626
N       -0.02292574      -0.01140005       1.30974913
C        0.14584577       0.60432118      -2.06925893
H        0.27871251       1.31171250      -2.86099339
C       -0.05734278      -0.73004788      -2.09518051
C       -0.44782737      -2.34045696      -0.01164436
H        0.47894105      -2.87932038       0.45699784
N       -1.68166900      -2.77657771       0.04778639
H       -0.05042627      -1.45130396      -2.88552308
O        0.39857841       1.16162562       1.82825017
H        0.20528443       1.23439062       2.73502588
C       -1.65541768      -3.94680595       0.79743618
H       -0.70754087      -4.21398497       1.21581900
C       -0.60612786      -4.26395893       1.26058161
C       -0.17541635      -5.45090437       2.13438916
C       -0.02178496      -4.57038403       1.51850438
C       -1.86244750      -3.80575800       0.81129456
C       -1.77696490      -3.65147591       0.70984030
C       -1.74975681      -3.61064243       0.70020068
C       -1.70512605      -2.43594885       1.10620403
C       -1.86244750      -3.86013103       2.06011105
C        0.40990797      -2.57765532      -0.00038470
C       -1.95007288      -4.01479244       2.06090450
C        0.60913479      -1.21853304       0.15149796
C        0.42432901      -2.51740885      -0.00019539
C       -2.03726935      -4.01479244       2.05171418
C        0.64756203      -1.34217608       0.27758771
