31
Properties=species:S:1:pos:R:3 pbc="F F F"
C        0.00000000       0.00000000       0.00000000
H       -1.17167795       0.89608914       0.97831053
H        1.12261617      -0.73426741      -1.06050980
H       -0.53380251      -0.89063758       0.25829992
C       -0.08816699       1.27299678       0.49860221
H       -1.19390249       1.42008448       0.31801099
C        1.43109155       2.45726967       0.19553900
C        1.30798042       1.11382115       0.61493766
C       -1.61737335       1.40522552       1.20580840
C       -1.10207713       2.28051567      -0.84548563
C       -1.12433004       2.32061291      -0.81631964
C        0.04644597      -0.21185686       0.88377547
N       -0.34972697       0.88435286      -1.34837246
C       -0.59605134       1.39021468      -1.52680850
C       -1.03385091      -0.04836977       1.13906074
C       -1.09288549      -0.03099155       1.13841987
C       -0.86931992       3.62813091       0.24641806
C       -0.10659981       2.11148763       0.25609708
H        0.22055590       4.28674173       0.89703387
H        0.22055590       4.28674173       0.89703387
C       -0.08144629       2.07316637       0.31314340
C       -0.08584636       1.87091279       1.44175804
C       -0.38216221       2.57218909      -0.47869498
C       -1.34676290       0.19618690       1.55946374
C       -1.32275975       0.17460287       1.54057741
C       -0.28495586      -0.98613048       0.88349468
N       -2.53234768       1.12950087       2.23423696
N       -2.64858317       0.92673558       2.27036214
C       -1.29143071       1.85268164       0.30208248
C       -0.22693038      -0.95590067       0.87333173
C       -0.27008200      -1.09208536       0.94908154
