7
Properties=species:S:1:pos:R:3 pbc="F F F"
C        0.00000000       0.00000000       0.00000000
H        0.76166695      -1.26668823       0.93694246
H        1.41079438      -0.32167196       1.01935410
H       -0.91284490      -0.49400443      -0.39341211
H       -0.26651150       0.84722853       0.59672004
C        1.22977495      -0.36539143      -0.13506046
C        0.13110757      -0.09558064       0.39657000
