31
Properties=species:S:1:pos:R:3 pbc="F F F"
C        0.00000000       0.00000000       0.00000000
H        0.91079640       0.19755834      -1.48118782
H       -1.13066220      -1.22389758      -0.53495252
H       -1.59923697      -0.23039402      -0.72267300
H       -1.38723361      -0.92251897      -0.59786117
C       -0.33013260      -1.62889218      -0.38253379
C       -1.90121710      -0.18307179      -0.72877538
C        0.31773573      -0.47194773      -1.31343687
C       -0.62590718      -0.37322080      -0.68970245
C       -0.52980888      -0.61956477      -0.63164341
C        0.83897209      -1.89361548      -1.09418619
C       -0.48300958      -0.02033144      -0.77823669
C       -0.80516875       1.33016706      -1.02413416
C       -0.34558222       0.25496459      -0.58229852
C       -0.65443325       2.22709203      -1.05420303
C       -0.63183129       2.22119999      -1.08827567
N       -0.65910184       2.21422839      -1.18287849
C       -0.88735980       2.14125204      -2.44217825
C       -0.90765947       2.11833572      -2.41660786
C       -1.08752251       2.07243204      -2.34471178
C       -2.18368196       1.75383890      -1.39784050
C       -0.67906421       2.31293201       0.35296547
C       -0.72795933       2.38626766       0.34485221
C       -0.49667379       3.04343963      -1.60700107
C        0.00687277      -1.13374078      -1.15671062
C       -1.47808397      -0.48940858      -1.39300990
C       -0.86911750       2.43894887      -0.19564199
C       -1.42256463      -0.50340295      -1.40482664
C       -1.34309995      -0.33018869      -1.60587716
C       -1.57800496      -1.70534575      -0.14242089
C       -0.28204501      -0.82788271      -1.65344143
