13
Properties=species:S:1:pos:R:3 pbc="F F F"
C        0.00000000       0.00000000       0.00000000
H        0.57231915       1.18820632       1.11960387
C        0.06184256       0.10989177       0.09904075
O        0.10448360       0.08241880       0.04700840
C       -0.68525666       0.11711471       0.46055210
C       -0.69146901       0.10266884       0.44742179
C       -0.22530156       0.81130546       1.05896914
C       -0.20754078       0.81130546       1.06458580
C       -0.19314596       0.79267126       1.08192706
C       -0.03344099       2.34064031       1.71244490
C       -0.04480585       2.34064031       1.71539259
C       -0.05128706       2.35208368       1.68947315
C        0.00412273       2.36306047       1.64437175
