16
Properties=species:S:1:pos:R:3 pbc="F F F"
C        0.00000000       0.00000000       0.00000000
H        0.79179925      -1.53210127       0.13644245
C        0.07434106      -0.14169717       0.00633553
O        0.06407797      -0.10627294      -0.03540793
C        0.44526953      -0.36275360      -1.24081624
C        0.44526953      -0.36275360      -1.24081624
C        0.44526953      -0.36275360      -1.24081624
C        0.44526953      -0.36275360      -1.24081624
C        0.44526953      -0.36275360      -1.24081624
C        0.44526953      -0.36275360      -1.24081624
C        0.44526953      -0.36275360      -1.24081624
C       -1.18621147      -0.72889739      -0.42478314
C        1.32072139       0.60593754       0.09148426
C       -1.18621147      -0.72889739      -0.42478314
C        1.31830823       0.60593754       0.11345741
C        0.48995271      -0.31859905      -1.23442709
