25
Properties=species:S:1:pos:R:3 pbc="F F F"
C        0.00000000       0.00000000       0.00000000
H        0.81038153       1.47249854       0.40978843
C        0.08657545       0.12204444       0.06733260
C        1.61313343       2.60106754       1.01146865
C        0.87414950       1.23341024       0.67753208
H        1.00511479       0.35758567       1.50207949
C        0.10059428       0.18386853       0.04304600
C       -0.69974226      -0.76862550      -0.73997033
C       -0.69974226      -0.76862550      -0.73997033
C        0.76678419       1.78000402       0.00511137
C        0.76678419       1.78000402       0.00511137
C        0.76601827       1.78000402      -0.00654176
C        1.65991807      -0.35098162       0.36689296
C        1.65991807      -0.35098162       0.36689296
C        0.98058462       1.57869434       0.44338492
C        1.39901364       1.90123224       1.85270417
C        1.39177418       1.89202094       1.83649480
C        0.99089056      -0.23504400       1.50585008
O        1.12280524      -0.26469970       0.86390507
C        1.00536907      -0.23504400       1.50367999
C        1.01533520      -0.24937999       1.47596610
C        0.73829651       0.13434678       2.19730997
C        0.38145378       1.83675289       1.73077798
C        0.37707907       1.81642437       1.74012983
C        1.03107452      -0.17254746       1.56497478
