21
Properties=species:S:1:pos:R:3 pbc="F F F"
C        0.00000000       0.00000000       0.00000000
H        0.60305703       0.54746705      -1.52626956
C        0.04367393       0.05063275      -0.14600003
O       -0.05984497       0.04430366      -0.17146873
H        0.22847468      -0.17297538      -0.82144910
H       -0.47359988       0.39810449      -1.59414947
H       -0.50142646       0.39810449      -1.58561695
H       -0.47359988       0.39810449      -1.59414947
H       -0.47359988       0.39810449      -1.59414947
C       -1.30856800       0.39070752      -1.43517351
C       -1.30224192       0.37591580      -1.40610695
C       -2.08264160       0.41281143      -1.07755983
C       -2.05442238       0.41263738      -1.05592501
C       -2.11483598       0.41281143      -1.19137871
C       -1.91122115       0.39967093      -2.53897023
C       -1.91122115       0.39967093      -2.53897023
C       -1.91122115       0.42560384      -2.53897023
C       -1.34707832       0.42455956       0.11728442
C       -1.34707832       0.42455956       0.11728442
C       -1.34707832       0.42455956       0.11728442
C       -1.36771905       0.42455956       0.12948406
