25
Properties=species:S:1:pos:R:3 pbc="F F F"
C        0.00000000       0.00000000       0.00000000
H        1.30085301      -0.40276068      -1.06698728
C        0.12882853      -0.03724954      -0.08838749
O        0.18613148      -0.03259334       0.00467932
H        0.55114597      -0.53780293      -0.30968696
H        1.67545879      -0.33998597      -0.03666042
H        1.67545879      -0.33998597      -0.03666042
H        1.67545879      -0.33998597      -0.03666042
H        0.56164634      -0.53780293      -0.29020894
H        1.62687647      -0.33203307      -0.17867228
H        2.18937707      -0.11334486       0.85048163
H        2.16490245      -0.04257429       0.84339106
H        2.14426684      -0.00770816       0.84215122
H        2.05352950      -0.14552887       0.94525009
H        2.95102882      -0.80832988       0.17982411
H        2.95102882      -0.80832988       0.17982411
H        2.95999122      -0.79056233       0.17193228
H        3.00366116      -0.77258980       0.20609301
H        1.01607060       0.28523925       0.55077779
H        1.02136779       0.28523925       0.53071642
C        1.55991983       0.55189055       0.78764522
C        1.87669039      -1.42694795      -0.44883072
C        1.88614559      -1.44851792      -0.44329798
C        1.89044559      -1.46037507      -0.39192659
C        1.87540340      -1.44851792      -0.42456609
