14
Properties=species:S:1:pos:R:3 pbc="F F F"
C        0.00000000       0.00000000       0.00000000
H       -1.18209577      -0.04516050       1.26234186
C       -0.11939251      -0.00417669       0.10740471
O       -0.19030869      -0.00365460       0.02027380
H       -0.58685976       0.36939079       0.45612052
H       -1.68992245      -0.01488097       0.26083955
H       -1.68992245      -0.01488097       0.26083955
H       -1.69422865      -0.01488097       0.23122440
H       -0.60462040       0.38227066       0.42095503
H       -1.62181330      -0.01453288       0.39800426
C       -1.44830465      -0.06662846      -0.55245185
C       -1.82059586      -0.05150658      -0.42759743
C       -1.77708721      -0.03672158      -0.43739834
C       -1.24484110       0.00730772      -0.46297672
