30
Properties=species:S:1:pos:R:3 pbc="F F F"
C        0.00000000       0.00000000       0.00000000
H       -1.54241240       0.66030037      -0.42173904
C       -0.13622975       0.08641464      -0.02399182
C       -2.79362440       1.43688416      -0.64863920
C       -1.28332710       0.79185081      -0.24985281
C       -2.64316368       1.03380382      -0.75304425
C       -2.86911511       0.89717209      -0.93328571
O       -2.06379318       0.82753682      -0.56085157
O       -2.72238588       2.21442103      -0.19093633
O       -2.68287206       2.21442103      -0.18677163
N       -1.49702728       2.20406532      -0.08795985
N       -1.49702728       2.20406532      -0.08795985
N       -3.79700518       1.67767572      -0.36873436
C       -1.84260321       2.25540495       1.10875607
C       -1.81999183       2.25540495       1.09315979
C       -2.02526689       2.69469547      -0.26749766
C       -2.03024578       2.69469547      -0.30397809
C       -2.57371092       1.48478520       0.80672431
C       -2.54518700       1.46344793       0.79682255
O       -2.20732832       2.65057921       1.37613869
O       -2.11885571       2.62118316       1.38209462
H       -3.01907873       2.89134097       1.30134034
C       -3.53621173       2.04209042       1.82858515
C       -3.52809000       2.04209042       1.85177255
C       -3.52598548       2.01775074       1.82510340
H       -3.63628387       1.64705563       1.12987125
H       -3.63628387       1.64705563       1.12987125
C       -3.29135275       0.86270130       0.93903238
H       -3.64890146       1.64705563       1.13187528
H       -3.68343639       1.62189019       1.15305996
