18
Properties=species:S:1:pos:R:3 pbc="F F F"
C        0.00000000       0.00000000       0.00000000
H       -0.27892056      -1.20991027       1.20466483
C       -0.03537253      -0.11189926       0.10924077
O       -0.08846600      -0.08392441       0.06977260
C        0.77377200      -0.13356587       0.29285884
C        0.77994931      -0.10467632       0.26447594
C        0.45597315      -0.86736655       0.93804854
C        0.44069409      -0.86736655       0.94744390
C        0.42884898      -0.81281108       0.99993831
C        1.20572388      -1.79459715      -0.29669017
H        0.13665238      -1.14290655       0.29669011
C        1.19715500      -1.81987548      -0.28275520
C        1.15363872      -1.81987548      -0.30847532
H        2.56576872      -0.89264494       0.06439051
H        2.56576872      -0.89264494       0.06439051
H        2.56576872      -0.89264494       0.06439051
H        2.57207823      -0.89264494       0.03961965
H        2.56576872      -0.89264494       0.06439051
