17
Properties=species:S:1:pos:R:3 pbc="F F F"
C        0.00000000       0.00000000       0.00000000
H       -1.09958601      -0.37341809      -1.28232837
C       -0.09155035      -0.03453577      -0.12737370
O        0.00060892      -0.03021878      -0.18693686
H       -0.44262415       0.22120757      -0.66637146
H       -0.07377645      -0.28145552      -1.68506289
H       -0.07377645      -0.28145552      -1.68506289
H       -0.07377645      -0.28145552      -1.68506289
H       -0.04427497      -0.28145552      -1.68609595
C        0.76935786      -0.27405855      -1.79262507
C        1.64823890      -0.38677683      -1.81338847
C        1.64823890      -0.38677683      -1.81338847
C        1.64572930      -0.38677683      -1.84350586
C        0.77183664      -0.31842920      -1.76298141
C        0.70624930      -0.45443088      -1.34076774
C        0.62733322      -0.60588074      -1.33053041
O        1.51384032      -0.23994961      -1.60859144
