10
Properties=species:S:1:pos:R:3 pbc="F F F"
C        0.00000000       0.00000000       0.00000000
H       -0.20168304       1.33221400      -1.08509290
C       -0.01004247       0.12321043      -0.10199481
O        0.04747835       0.09240782      -0.08865088
O        0.90533531      -0.89463663       0.53531873
O        0.90533531      -0.89463663       0.53531873
O        0.90533531      -0.89463663       0.53531873
O        0.90533531      -0.89463663       0.53531873
O       -0.61892086       0.06481268      -1.35382199
O        0.91973472      -0.87507045       0.54534405
