24
Properties=species:S:1:pos:R:3 pbc="F F F"
C        0.00000000       0.00000000       0.00000000
H       -0.98945343      -1.20991027       0.74161720
C       -0.10948640      -0.11189926       0.04524994
C       -1.98770165      -2.23327875       1.16151643
C       -1.02633631      -1.06533074       0.45400578
C       -0.43214118      -0.43360931       0.17694104
C       -0.65337634      -1.06889677       0.69652230
N        0.99453551       1.02336860      -0.42861849
C       -1.19890082      -0.79859614       0.21387374
N        0.58085817       0.57296050      -0.23836917
N        0.58085817       0.57296050      -0.23836917
O        0.53625715       0.58047742      -0.25372055
H       -0.92238015       0.86918950      -0.79462475
H       -0.92238015       0.86918950      -0.79462475
H       -0.93188483       0.86918950      -0.76823145
H       -0.93188483       0.86918950      -0.76823145
H       -0.26688498       0.79480714      -2.37224650
H       -0.26688498       0.79480714      -2.37224650
H       -0.26688498       0.79480714      -2.37224650
H       -1.40448499       0.88407046       0.87509578
H       -1.40448499       0.88407046       0.87509578
H       -1.40448499       0.88407046       0.87509578
H       -1.40448499       0.88407046       0.87509578
H       -1.43317246       0.88407046       0.86657304
