14
Properties=species:S:1:pos:R:3 pbc="F F F"
C        0.00000000       0.00000000       0.00000000
H        0.60687363      -1.31280398      -0.94928759
C        0.06001461      -0.10380042      -0.11014920
C        1.14978266      -2.27825713      -1.94590592
C        0.57199782      -1.01098394      -1.02445030
C        0.23488927      -0.41084105      -0.41995811
N       -0.55217999       0.93286312       0.99285537
C        0.26627767      -0.86641693      -1.13687181
N       -0.53416693       0.96545309       1.00133109
C       -0.29584098       0.49488407       0.46031791
O       -0.11069542       0.10463411       0.13118291
N       -0.82059687       1.00284719       1.08490336
O       -1.00620961       0.83009350       1.07451582
O       -0.97741210       0.85558796       1.08107901
