13
Properties=species:S:1:pos:R:3 pbc="F F F"
C        0.00000000       0.00000000       0.00000000
H       -0.67973131      -0.95250899       1.27420115
C       -0.07300812      -0.08809328       0.11249125
O       -0.12092942      -0.06606996       0.05188227
C        1.05655551       0.00501455       0.47514239
C        1.05655551       0.00501455       0.47514239
C        1.05003595       0.00501455       0.49485537
C        1.60677981       0.05017505      -1.16440344
C       -0.61732477       0.37297770       1.68857169
C        0.74939364      -0.57543230       1.20252788
C        0.74939364      -0.57543230       1.20252788
C        0.74939364      -0.57543230       1.20252788
C        0.74023473      -0.58209068       1.23282111
