15
Properties=species:S:1:pos:R:3 pbc="F F F"
C        0.00000000       0.00000000       0.00000000
H       -0.99719554       1.25221181      -0.65609705
C       -0.11403412       0.09713030      -0.06388915
C       -2.02918148       2.15711784      -1.23596632
C       -1.06106544       0.94833529      -0.61107171
C       -0.43535286       0.38524348      -0.25014377
N        1.03655779      -0.87229908       0.57056135
C       -1.18083918       0.78979719      -0.30569795
N        1.03702068      -0.90490592       0.57081622
C        0.48662239      -0.46560079       0.30024159
O        0.16569591      -0.07174084       0.09453815
O        1.41301513      -0.45041040       0.81031823
O        1.41301513      -0.45041040       0.81031823
O        1.41301513      -0.45041040       0.81031823
O        1.40600097      -0.47869104       0.80629587
