10
Properties=species:S:1:pos:R:3 pbc="F F F"
C        0.00000000       0.00000000       0.00000000
H       -0.93133014      -0.90167105       1.14564836
C       -0.09526527      -0.08339149       0.09859943
O       -0.13149655      -0.06254363       0.02840686
C        0.95230317       0.03034950       0.65155751
C        0.95230317       0.03034950       0.65155751
C        0.95389509       0.00971634       0.65239781
C       -0.92035747      -1.18125081       1.15065682
C       -0.75081837       0.01030765      -0.40177089
C        0.64957184      -0.14833227       0.45901623
