10
Properties=species:S:1:pos:R:3 pbc="F F F"
C        0.00000000       0.00000000       0.00000000
H        1.29856396       1.12096226       0.22376789
C        0.12192059       0.10367274       0.01039037
O        0.10508883       0.07775462      -0.05806963
C       -0.06523588       0.08200613       0.81872380
C       -0.09327999       0.06756902       0.81119311
C        0.63827604       0.41774058      -1.64684832
C        0.63827604       0.41774058      -1.64684832
C        0.63827604       0.41774058      -1.64684832
C        0.61038917       0.41774058      -1.65593624
