13
Properties=species:S:1:pos:R:3 pbc="F F F"
C        0.00000000       0.00000000       0.00000000
H        0.90113002      -0.95250899      -1.12853348
C        0.07441038      -0.08809328      -0.11156857
O       -0.00021571      -0.06606996      -0.13158870
C        0.85451013       0.00501455       0.78222913
C        0.85451013       0.00501455       0.78222913
C        0.87003297       0.00501455       0.76843971
C       -0.43338841       0.05017505       1.93642783
C        1.30636406       0.37297770      -1.23522353
C        1.40093160      -0.57543230       0.21226269
C        1.40093160      -0.57543230       0.21226269
C        1.40093160      -0.57543230       0.21226269
C        1.42512608      -0.58209068       0.19186220
