13
Properties=species:S:1:pos:R:3 pbc="F F F"
C        0.00000000       0.00000000       0.00000000
H        1.25203466      -1.14372575      -0.34234130
C        0.11311984      -0.10577810      -0.04161680
O        0.06952786      -0.07933354      -0.09567468
C        0.30033320      -0.09855516       0.76696146
C        0.27177668      -0.06967437       0.77227777
C        1.00464296      -0.77073675       0.46255469
C        1.01426935      -0.77073675       0.44610381
C        1.03400350      -0.75167799       0.43520987
C        1.71162152      -2.28816485       0.44305253
C        1.71156812      -2.28816485       0.45525739
C        1.68510723      -2.30007148       0.44316855
C        1.57473147      -2.34303188       0.39446032
