17
Properties=species:S:1:pos:R:3 pbc="F F F"
C        0.00000000       0.00000000       0.00000000
H        1.65035367       0.51882261      -0.00722117
C        0.14478147       0.07412145       0.01254269
C        2.98004913       1.18194556       0.10357711
C        1.38693309       0.68111676       0.09660647
C        0.54826951       0.27491361       0.04586319
N       -1.29930365      -0.67703336      -0.11972374
C        1.38778794       0.37087056      -0.04633722
N       -0.72863990      -0.43032548      -0.08002310
N       -0.73597419      -0.41750282      -0.08082858
O       -0.76640707      -0.36498687      -0.04364140
C       -1.20751762       0.35917655       0.15106013
C       -1.21085751       0.35917655       0.14331049
O       -1.43719804       0.82931912       0.87623346
O       -1.43719804       0.82931912       0.87623346
O       -1.16182995       0.32264414       0.47914350
O       -1.17227197       0.33394805       0.45562139
