14
Properties=species:S:1:pos:R:3 pbc="F F F"
C        0.00000000       0.00000000       0.00000000
H       -1.72201526       0.10532132      -0.12832585
C       -0.16034043       0.00974070       0.00180237
O       -0.15353906       0.00852311       0.11376879
H       -0.75306571      -0.34329918       0.06275013
H       -1.41976786       0.04463842       0.95203137
H       -1.41976786       0.04463842       0.95203137
H       -1.40288842       0.04463842       0.97673345
H       -1.41976786       0.04463842       0.95203137
C       -1.00664759       0.03724144       1.69484818
C       -0.52682298       0.08979892       2.43308067
C       -0.52682298       0.08979892       2.43308067
C       -0.52682298       0.08979892       2.43308067
C       -0.55287963       0.08979892       2.44848108
