11
Properties=species:S:1:pos:R:3 pbc="F F F"
C        0.00000000       0.00000000       0.00000000
H        0.75296217      -1.25221181       0.92623454
C        0.07701999      -0.11581147       0.07971573
O        0.10631233      -0.08685863       0.02296638
O        0.16766697       0.79713815      -1.06885040
O        0.18624750       0.78471708      -1.05148530
O        0.16890335       0.77694809      -1.08451617
C       -0.32291159       1.32323229      -1.26043117
C       -0.32291159       1.32323229      -1.26043117
C       -0.32291159       1.32323229      -1.26043117
C       -0.32770726       1.31357217      -1.27298629
