21
Properties=species:S:1:pos:R:3 pbc="F F F"
C        0.00000000       0.00000000       0.00000000
H        0.98383123      -0.25500599       1.39998031
C        0.08238786       0.00340641       0.14080572
C        1.73068380      -0.24203952       2.68922091
C        0.79283631       0.00412235       1.32953572
C        0.31324452       0.00806898       0.52934593
N       -0.74770361      -0.03837338      -1.26505530
C        0.85077626      -0.27491021       1.12388968
N       -0.41884217      -0.05174749      -0.73783016
N       -0.41884217      -0.05174749      -0.73783016
O       -0.43460888       0.02166661      -0.70678538
H       -0.73920846       1.42933500      -0.13728249
H       -0.73920846       1.42933500      -0.13728249
H       -0.73920846       1.42933500      -0.13728249
H       -0.73920846       1.42933500      -0.13728249
H       -0.73920846       1.42933500      -0.13728249
H       -0.73920846       1.42933500      -0.13728249
H       -0.73920846       1.42933500      -0.13728249
H       -0.73920846       1.42933500      -0.13728249
H       -0.73920846       1.42933500      -0.13728249
H       -0.74313933       1.44750786      -0.12991381
